data/nesta/api/nesta_case2736sp_mp__api.m
%%%%%%%%%%%%%%%%%%%%%%%%%%%%%%%%%%%%%%%%%%%%%%%%%%%%%%%%%%%%%%%%%%%%%%%%%%%
%%%%                                                                  %%%%%
%%%%      NICTA Energy System Test Case Archive (NESTA) - v0.1.5      %%%%%
%%%%            Optimal Power Flow - Active Power Increase            %%%%%
%%%%                       30 - October - 2014                        %%%%%
%%%%                                                                  %%%%%
%%%%%%%%%%%%%%%%%%%%%%%%%%%%%%%%%%%%%%%%%%%%%%%%%%%%%%%%%%%%%%%%%%%%%%%%%%%
function mpc = nesta_case2736sp_mp__api
mpc.version = '2';
mpc.baseMVA = 100.0;

%% area data
%	area	refbus
mpc.areas = [
	1	 18;
];

%% bus data
%	bus_i	type	Pd	Qd	Gs	Bs	area	Vm	Va	baseKV	zone	Vmax	Vmin
mpc.bus = [
	1	 1	 0.00	 0.00	 0.0	 0.0	 1	     1.1010	    36.7758	 220.0	 1	     1.1100	     0.9500;
	2	 1	 0.00	 0.00	 0.0	 0.0	 1	     1.1060	    38.5028	 220.0	 1	     1.1100	     0.9500;
	3	 1	 0.00	 0.00	 0.0	 0.0	 1	     1.0849	    13.5491	 220.0	 1	     1.1100	     0.9500;
	4	 1	 0.00	 0.00	 0.0	 0.0	 1	     1.0923	    32.5189	 220.0	 1	     1.1100	     0.9500;
	5	 1	 0.00	 0.00	 0.0	 0.0	 1	     1.0924	    32.5174	 220.0	 1	     1.1100	     0.9500;
	6	 1	 0.00	 0.00	 0.0	 0.0	 1	     1.0653	    22.2345	 220.0	 1	     1.1100	     0.9500;
	7	 1	 0.00	 0.00	 0.0	 0.0	 1	     1.0654	    22.2470	 220.0	 1	     1.1100	     0.9500;
	8	 1	 0.00	 0.00	 0.0	 0.0	 1	     1.0256	    25.4012	 400.0	 1	     1.0500	     0.9500;
	9	 1	 0.00	 0.00	 0.0	 0.0	 1	     1.0257	    25.4072	 400.0	 1	     1.0500	     0.9500;
	10	 1	 0.00	 0.00	 0.0	 0.0	 1	     1.0587	    21.7599	 220.0	 1	     1.1100	     0.9500;
	11	 1	 0.00	 0.00	 0.0	 0.0	 1	     1.0586	    21.7550	 220.0	 1	     1.1100	     0.9500;
	12	 1	 0.00	 0.00	 0.0	 0.0	 1	     1.0585	    21.7615	 220.0	 1	     1.1100	     0.9500;
	13	 1	 0.00	 0.00	 0.0	 0.0	 1	     1.0585	    21.7541	 220.0	 1	     1.1100	     0.9500;
	14	 1	 0.00	 0.00	 0.0	 0.0	 1	     1.0184	    26.7855	 400.0	 1	     1.0500	     0.9500;
	15	 1	 0.00	 0.00	 0.0	 0.0	 1	     1.0315	    22.6957	 400.0	 1	     1.0500	     0.9500;
	16	 1	 0.00	 0.00	 0.0	 0.0	 1	     1.0315	    22.6957	 400.0	 1	     1.0500	     0.9500;
	17	 2	 0.00	 0.00	 0.0	 0.0	 1	     1.0932	    16.4516	 220.0	 1	     1.1100	     0.9500;
	18	 1	 0.00	 0.00	 0.0	 0.0	 1	     1.0933	    16.4510	 220.0	 1	     1.1100	     0.9500;
	19	 1	 0.00	 0.00	 0.0	 0.0	 1	     1.0968	    33.5199	 220.0	 1	     1.1100	     0.9500;
	20	 1	 0.00	 0.00	 0.0	 0.0	 1	     1.0969	    33.5223	 220.0	 1	     1.1100	     0.9500;
	21	 1	 0.00	 0.00	 0.0	 0.0	 1	     1.0778	    20.6311	 220.0	 1	     1.1100	     0.9500;
	22	 1	 0.00	 0.00	 0.0	 0.0	 1	     1.0778	    20.6311	 220.0	 1	     1.1100	     0.9500;
	23	 1	 0.00	 0.00	 0.0	 0.0	 1	     1.0563	    21.7499	 220.0	 1	     1.1100	     0.9500;
	24	 1	 0.00	 0.00	 0.0	 0.0	 1	     1.0981	    35.2821	 220.0	 1	     1.1100	     0.9500;
	25	 1	 0.00	 0.00	 0.0	 0.0	 1	     1.0326	    25.0803	 400.0	 1	     1.0500	     0.9500;
	26	 2	 91.84	 72.05	 0.0	 0.0	 1	     1.1100	    37.1059	 220.0	 1	     1.1100	     0.9500;
	27	 2	 127.01	 122.06	 0.0	 0.0	 1	     1.1100	    38.7943	 220.0	 1	     1.1100	     0.9500;
	28	 3	 73.34	 74.00	 0.0	 0.0	 1	     1.0462	    36.0291	 400.0	 1	     1.0500	     0.9500;
	29	 2	 73.34	 74.00	 0.0	 0.0	 1	     1.0462	    36.0347	 400.0	 1	     1.0500	     0.9500;
	30	 1	 0.00	 0.00	 0.0	 0.0	 1	     1.0662	    21.3489	 220.0	 1	     1.1100	     0.9500;
	31	 1	 0.00	 0.00	 0.0	 0.0	 1	     1.0439	    34.5951	 400.0	 1	     1.0500	     0.9500;
	32	 1	 0.00	 0.00	 0.0	 0.0	 1	     1.0558	    21.4460	 220.0	 1	     1.1100	     0.9500;
	33	 1	 0.00	 0.00	 0.0	 0.0	 1	     1.0993	    30.1035	 220.0	 1	     1.1100	     0.9500;
	34	 1	 0.00	 0.00	 0.0	 0.0	 1	     1.0767	    27.2725	 220.0	 2	     1.1100	     0.9500;
	35	 1	 0.00	 0.00	 0.0	 0.0	 1	     1.0798	    27.6737	 220.0	 2	     1.1100	     0.9500;
	36	 1	 0.00	 0.00	 0.0	 0.0	 1	     1.0876	    28.6488	 220.0	 2	     1.1100	     0.9500;
	37	 1	 0.00	 0.00	 0.0	 0.0	 1	     1.0876	    28.6469	 220.0	 2	     1.1100	     0.9500;
	38	 1	 0.00	 0.00	 0.0	 0.0	 1	     1.0668	    26.0332	 220.0	 2	     1.1100	     0.9500;
	39	 1	 0.00	 0.00	 0.0	 0.0	 1	     1.1100	    28.9836	 220.0	 2	     1.1100	     0.9500;
	40	 1	 0.00	 0.00	 0.0	 0.0	 1	     1.1099	    28.9840	 220.0	 2	     1.1100	     0.9500;
	41	 1	 0.00	 0.00	 0.0	 0.0	 1	     1.0238	    29.1892	 400.0	 2	     1.0500	     0.9500;
	42	 2	 25.00	 0.00	 0.0	 0.0	 1	     1.0911	    27.8276	 220.0	 2	     1.1100	     0.9500;
	43	 2	 26.00	 0.00	 0.0	 0.0	 1	     1.0910	    27.8460	 220.0	 2	     1.1100	     0.9500;
	44	 2	 25.00	 0.00	 0.0	 0.0	 1	     1.0275	    28.2521	 400.0	 2	     1.0500	     0.9500;
	45	 1	 0.00	 0.00	 0.0	 0.0	 1	     1.0274	    28.2494	 400.0	 2	     1.0500	     0.9500;
	46	 1	 0.00	 0.00	 0.0	 0.0	 1	     1.1065	    28.4895	 220.0	 2	     1.1100	     0.9500;
	47	 1	 0.00	 0.00	 0.0	 0.0	 1	     1.0379	    25.8501	 400.0	 2	     1.0500	     0.9500;
	48	 1	 0.00	 0.00	 0.0	 0.0	 1	     1.0378	    25.8443	 400.0	 2	     1.0500	     0.9500;
	49	 1	 0.00	 0.00	 0.0	 0.0	 1	     1.0342	    27.7399	 400.0	 2	     1.0500	     0.9500;
	50	 1	 0.00	 0.00	 0.0	 0.0	 1	     1.0744	    27.0891	 220.0	 2	     1.1100	     0.9500;
	51	 1	 0.00	 0.00	 0.0	 0.0	 1	     1.0744	    27.0919	 220.0	 2	     1.1100	     0.9500;
	52	 1	 0.00	 0.00	 0.0	 0.0	 1	     1.0381	    28.4572	 400.0	 2	     1.0500	     0.9500;
	53	 1	 0.00	 0.00	 0.0	 0.0	 1	     1.0381	    28.4593	 400.0	 2	     1.0500	     0.9500;
	54	 2	 13.00	 0.00	 0.0	 0.0	 1	     1.0924	    29.6605	 220.0	 2	     1.1100	     0.9500;
	55	 2	 13.00	 0.00	 0.0	 0.0	 1	     1.0924	    29.6574	 220.0	 2	     1.1100	     0.9500;
	56	 2	 13.00	 0.00	 0.0	 0.0	 1	     1.0448	    29.3712	 400.0	 2	     1.0500	     0.9500;
	57	 2	 26.00	 0.00	 0.0	 0.0	 1	     1.0448	    29.3677	 400.0	 2	     1.0500	     0.9500;
	58	 2	 133.31	 40.00	 0.0	 0.0	 1	     1.0850	    27.4023	 220.0	 2	     1.1100	     0.9500;
	59	 1	 0.00	 0.00	 0.0	 0.0	 1	     1.0850	    27.4039	 220.0	 2	     1.1100	     0.9500;
	60	 1	 0.00	 0.00	 0.0	 0.0	 1	     1.1018	    28.4220	 220.0	 2	     1.1100	     0.9500;
	61	 1	 0.00	 0.00	 0.0	 0.0	 1	     1.0925	    27.3761	 220.0	 2	     1.1100	     0.9500;
	62	 1	 0.00	 0.00	 0.0	 0.0	 1	     1.0925	    27.3733	 220.0	 2	     1.1100	     0.9500;
	63	 1	 0.00	 0.00	 0.0	 0.0	 1	     1.0485	    28.2813	 400.0	 2	     1.0500	     0.9500;
	64	 1	 0.00	 0.00	 0.0	 0.0	 1	     1.0484	    28.2698	 400.0	 2	     1.0500	     0.9500;
	65	 1	 0.00	 0.00	 0.0	 0.0	 1	     1.0811	    27.5806	 220.0	 2	     1.1100	     0.9500;
	66	 1	 0.00	 0.00	 0.0	 0.0	 1	     1.0825	    27.7459	 220.0	 2	     1.1100	     0.9500;
	67	 1	 0.00	 0.00	 0.0	 0.0	 1	     1.0750	    27.8074	 220.0	 2	     1.1100	     0.9500;
	68	 1	 0.00	 0.00	 0.0	 0.0	 1	     1.1011	    32.5905	 220.0	 3	     1.1100	     0.9500;
	69	 1	 10.33	 0.00	 0.0	 0.0	 1	     1.0960	    29.3364	 220.0	 3	     1.1100	     0.9500;
	70	 1	 12.02	 3.71	 0.0	 0.0	 1	     1.0959	    29.3433	 220.0	 3	     1.1100	     0.9500;
	71	 1	 0.00	 0.00	 0.0	 0.0	 1	     1.0988	    32.3406	 220.0	 3	     1.1100	     0.9500;
	72	 1	 0.00	 0.00	 0.0	 0.0	 1	     1.0988	    32.3526	 220.0	 3	     1.1100	     0.9500;
	73	 1	 0.00	 0.00	 0.0	 0.0	 1	     1.0959	    32.0757	 220.0	 3	     1.1100	     0.9500;
	74	 1	 0.00	 0.00	 0.0	 0.0	 1	     1.0959	    32.0709	 220.0	 3	     1.1100	     0.9500;
	75	 1	 0.00	 0.00	 0.0	 0.0	 1	     1.0981	    30.7798	 220.0	 3	     1.1100	     0.9500;
	76	 1	 0.00	 0.00	 0.0	 0.0	 1	     1.0980	    30.7728	 220.0	 3	     1.1100	     0.9500;
	77	 2	 40.41	 70.00	 0.0	 0.0	 1	     1.1017	    33.1640	 220.0	 3	     1.1100	     0.9500;
	78	 2	 27.99	 42.00	 0.0	 0.0	 1	     1.1002	    33.2067	 220.0	 3	     1.1100	     0.9500;
	79	 1	 7.38	 0.82	 0.0	 0.0	 1	     1.0918	    31.8741	 220.0	 3	     1.1100	     0.9500;
	80	 1	 0.00	 0.00	 0.0	 0.0	 1	     1.0918	    31.8752	 220.0	 3	     1.1100	     0.9500;
	81	 2	 26.94	 57.00	 0.0	 0.0	 1	     1.0324	    32.1997	 400.0	 3	     1.0500	     0.9500;
	82	 1	 0.00	 0.00	 0.0	 0.0	 1	     1.0881	    31.1872	 220.0	 3	     1.1100	     0.9500;
	83	 1	 0.00	 0.00	 0.0	 0.0	 1	     1.0980	    31.5856	 220.0	 3	     1.1100	     0.9500;
	84	 1	 0.00	 0.00	 0.0	 0.0	 1	     1.0980	    31.5907	 220.0	 3	     1.1100	     0.9500;
	85	 1	 44.86	 -6.40	 0.0	 0.0	 1	     1.1020	    32.5785	 220.0	 3	     1.1100	     0.9500;
	86	 1	 0.00	 0.00	 0.0	 0.0	 1	     1.1020	    32.5733	 220.0	 3	     1.1100	     0.9500;
	87	 1	 0.00	 0.00	 0.0	 0.0	 1	     1.0922	    31.8904	 220.0	 3	     1.1100	     0.9500;
	88	 1	 0.00	 0.00	 0.0	 0.0	 1	     1.0921	    31.8961	 220.0	 3	     1.1100	     0.9500;
	89	 1	 0.00	 0.00	 0.0	 0.0	 1	     1.1033	    33.0330	 220.0	 3	     1.1100	     0.9500;
	90	 1	 0.00	 0.00	 0.0	 0.0	 1	     1.1033	    33.0286	 220.0	 3	     1.1100	     0.9500;
	91	 1	 0.00	 0.00	 0.0	 0.0	 1	     1.0476	    34.2081	 400.0	 3	     1.0500	     0.9500;
	92	 1	 0.00	 0.00	 0.0	 0.0	 1	     1.0476	    34.2064	 400.0	 3	     1.0500	     0.9500;
	93	 1	 0.00	 0.00	 0.0	 0.0	 1	     1.0935	    31.4822	 220.0	 3	     1.1100	     0.9500;
	94	 1	 0.00	 0.00	 0.0	 0.0	 1	     1.0935	    31.4777	 220.0	 3	     1.1100	     0.9500;
	95	 1	 0.00	 0.00	 0.0	 0.0	 1	     1.0928	    31.6853	 220.0	 3	     1.1100	     0.9500;
	96	 1	 0.00	 0.00	 0.0	 0.0	 1	     1.0927	    31.6828	 220.0	 3	     1.1100	     0.9500;
	97	 2	 18.69	 3.70	 0.0	 0.0	 1	     1.0989	    32.4551	 220.0	 3	     1.1100	     0.9500;
	98	 1	 25.93	 6.13	 0.0	 0.0	 1	     1.0989	    32.4485	 220.0	 3	     1.1100	     0.9500;
	99	 1	 0.00	 0.00	 0.0	 0.0	 1	     1.0961	    29.3608	 220.0	 3	     1.1100	     0.9500;
	100	 1	 0.00	 0.00	 0.0	 0.0	 1	     1.0961	    29.3606	 220.0	 3	     1.1100	     0.9500;
	101	 1	 0.00	 0.00	 0.0	 0.0	 1	     1.0915	    30.4061	 220.0	 3	     1.1100	     0.9500;
	102	 1	 0.00	 0.00	 0.0	 0.0	 1	     1.0914	    30.4064	 220.0	 3	     1.1100	     0.9500;
	103	 2	 20.95	 40.00	 0.0	 0.0	 1	     1.0995	    31.5628	 220.0	 3	     1.1100	     0.9500;
	104	 2	 0.00	 0.00	 0.0	 0.0	 1	     1.0995	    31.5358	 220.0	 3	     1.1100	     0.9500;
	105	 2	 10.48	 18.00	 0.0	 0.0	 1	     1.0952	    31.9647	 220.0	 3	     1.1100	     0.9500;
	106	 2	 0.00	 0.00	 0.0	 0.0	 1	     1.0951	    31.9621	 220.0	 3	     1.1100	     0.9500;
	107	 1	 0.00	 13.89	 0.0	 0.0	 1	     1.0994	    31.8938	 220.0	 3	     1.1100	     0.9500;
	108	 1	 110.43	 8.10	 0.0	 0.0	 1	     1.0994	    31.8843	 220.0	 3	     1.1100	     0.9500;
	109	 1	 0.00	 0.00	 0.0	 0.0	 1	     1.0936	    31.1510	 220.0	 3	     1.1100	     0.9500;
	110	 1	 0.00	 0.00	 0.0	 0.0	 1	     1.0870	    31.7770	 220.0	 3	     1.1100	     0.9500;
	111	 1	 0.00	 0.00	 0.0	 0.0	 1	     1.0871	    31.7775	 220.0	 3	     1.1100	     0.9500;
	112	 1	 0.00	 0.00	 0.0	 0.0	 1	     1.0929	    31.9515	 220.0	 3	     1.1100	     0.9500;
	113	 1	 0.00	 0.00	 0.0	 0.0	 1	     1.0930	    31.9606	 220.0	 3	     1.1100	     0.9500;
	114	 1	 0.00	 0.00	 0.0	 0.0	 1	     1.0415	    31.3154	 400.0	 3	     1.0500	     0.9500;
	115	 2	 0.00	 0.00	 0.0	 0.0	 1	     1.0997	    32.8428	 220.0	 3	     1.1100	     0.9500;
	116	 2	 11.97	 15.00	 0.0	 0.0	 1	     1.0997	    32.8451	 220.0	 3	     1.1100	     0.9500;
	117	 2	 8.23	 10.00	 0.0	 0.0	 1	     1.0981	    31.9634	 220.0	 3	     1.1100	     0.9500;
	118	 1	 0.00	 0.00	 0.0	 0.0	 1	     1.0981	    31.9545	 220.0	 3	     1.1100	     0.9500;
	119	 1	 0.00	 0.00	 0.0	 0.0	 1	     1.0496	    29.1009	 400.0	 3	     1.0500	     0.9500;
	120	 1	 0.00	 0.00	 0.0	 0.0	 1	     1.0496	    29.1057	 400.0	 3	     1.0500	     0.9500;
	121	 1	 0.00	 0.00	 0.0	 0.0	 1	     1.0500	    31.4824	 400.0	 3	     1.0500	     0.9500;
	122	 1	 0.00	 0.00	 0.0	 0.0	 1	     1.0500	    31.4876	 400.0	 3	     1.0500	     0.9500;
	123	 1	 0.00	 0.00	 0.0	 0.0	 1	     1.0929	    31.0850	 220.0	 3	     1.1100	     0.9500;
	124	 2	 16.46	 17.50	 0.0	 0.0	 1	     1.0994	    33.0096	 220.0	 3	     1.1100	     0.9500;
	125	 2	 61.89	 61.20	 0.0	 0.0	 1	     1.0993	    33.0271	 220.0	 3	     1.1100	     0.9500;
	126	 2	 20.95	 33.00	 0.0	 0.0	 1	     1.0364	    31.7139	 400.0	 3	     1.0500	     0.9500;
	127	 1	 0.00	 0.00	 0.0	 0.0	 1	     1.0364	    31.7144	 400.0	 3	     1.0500	     0.9500;
	128	 1	 0.00	 0.00	 0.0	 0.0	 1	     1.1014	    32.4701	 220.0	 3	     1.1100	     0.9500;
	129	 1	 0.00	 0.00	 0.0	 0.0	 1	     1.1014	    32.4723	 220.0	 3	     1.1100	     0.9500;
	130	 1	 0.00	 0.00	 0.0	 0.0	 1	     1.1019	    32.6963	 220.0	 3	     1.1100	     0.9500;
	131	 2	 2.25	 9.00	 0.0	 0.0	 1	     1.1009	    31.1324	 220.0	 3	     1.1100	     0.9500;
	132	 2	 0.00	 0.00	 0.0	 0.0	 1	     1.0981	    30.7726	 220.0	 3	     1.1100	     0.9500;
	133	 2	 16.79	 8.30	 0.0	 0.0	 1	     1.1100	    28.9038	 220.0	 4	     1.1100	     0.9500;
	134	 2	 15.47	 7.70	 0.0	 0.0	 1	     1.1099	    28.9011	 220.0	 4	     1.1100	     0.9500;
	135	 1	 0.00	 0.00	 0.0	 0.0	 1	     1.0811	    25.0032	 220.0	 4	     1.1100	     0.9500;
	136	 1	 0.00	 0.00	 0.0	 0.0	 1	     1.0828	    25.8453	 220.0	 4	     1.1100	     0.9500;
	137	 1	 0.00	 0.00	 0.0	 0.0	 1	     1.0066	    25.6296	 400.0	 4	     1.0500	     0.9500;
	138	 1	 0.00	 0.00	 0.0	 0.0	 1	     1.0066	    25.6296	 400.0	 4	     1.0500	     0.9500;
	139	 1	 0.00	 0.00	 0.0	 0.0	 1	     1.0954	    18.2019	 220.0	 4	     1.1100	     0.9500;
	140	 1	 0.00	 0.00	 0.0	 0.0	 1	     1.1001	    14.0876	 220.0	 4	     1.1100	     0.9500;
	141	 1	 0.00	 0.00	 0.0	 0.0	 1	     1.1001	    14.0876	 220.0	 4	     1.1100	     0.9500;
	142	 1	 0.00	 0.00	 0.0	 0.0	 1	     1.0997	    16.0138	 220.0	 4	     1.1100	     0.9500;
	143	 1	 0.00	 0.00	 0.0	 0.0	 1	     1.0777	    23.7065	 220.0	 4	     1.1100	     0.9500;
	144	 1	 0.00	 0.00	 0.0	 0.0	 1	     1.0777	    23.7065	 220.0	 4	     1.1100	     0.9500;
	145	 2	 0.00	 0.00	 0.0	 0.0	 1	     1.1089	    25.3893	 220.0	 4	     1.1100	     0.9500;
	146	 2	 0.00	 0.00	 0.0	 0.0	 1	     1.1089	    25.3883	 220.0	 4	     1.1100	     0.9500;
	147	 2	 38.25	 12.90	 0.0	 0.0	 1	     1.1100	    16.4028	 220.0	 4	     1.1100	     0.9500;
	148	 1	 0.00	 0.00	 0.0	 0.0	 1	     1.1099	    16.4075	 220.0	 4	     1.1100	     0.9500;
	149	 2	 16.46	 12.00	 0.0	 0.0	 1	     1.0402	    17.6648	 400.0	 4	     1.0500	     0.9500;
	150	 2	 17.84	 13.70	 0.0	 0.0	 1	     1.0402	    17.6658	 400.0	 4	     1.0500	     0.9500;
	151	 1	 0.00	 0.00	 0.0	 0.0	 1	     1.0697	    17.9194	 220.0	 4	     1.1100	     0.9500;
	152	 1	 0.00	 0.00	 0.0	 0.0	 1	     1.0969	    20.2471	 220.0	 4	     1.1100	     0.9500;
	153	 1	 0.00	 0.00	 0.0	 0.0	 1	     1.0969	    20.2427	 220.0	 4	     1.1100	     0.9500;
	154	 2	 29.15	 64.30	 0.0	 0.0	 1	     1.0865	    28.0050	 220.0	 4	     1.1100	     0.9500;
	155	 2	 23.95	 33.00	 0.0	 0.0	 1	     1.0865	    27.9967	 220.0	 4	     1.1100	     0.9500;
	156	 1	 0.00	 0.00	 0.0	 0.0	 1	     1.0044	    27.5617	 400.0	 4	     1.0500	     0.9500;
	157	 2	 14.97	 25.00	 0.0	 0.0	 1	     1.0043	    27.5674	 400.0	 4	     1.0500	     0.9500;
	158	 1	 0.00	 0.00	 0.0	 0.0	 1	     1.0991	    14.1220	 220.0	 4	     1.1100	     0.9500;
	159	 1	 0.00	 0.00	 0.0	 0.0	 1	     1.0991	    14.1220	 220.0	 4	     1.1100	     0.9500;
	160	 1	 0.00	 0.00	 0.0	 0.0	 1	     1.0127	    25.5960	 400.0	 4	     1.0500	     0.9500;
	161	 1	 0.00	 0.00	 0.0	 0.0	 1	     1.0154	    26.7406	 400.0	 4	     1.0500	     0.9500;
	162	 1	 0.00	 0.00	 0.0	 0.0	 1	     1.0153	    26.7365	 400.0	 4	     1.0500	     0.9500;
	163	 2	 8.29	 2.93	 0.0	 0.0	 1	     1.1100	    25.2174	 220.0	 4	     1.1100	     0.9500;
	164	 2	 27.32	 11.50	 0.0	 0.0	 1	     1.1100	    25.2087	 220.0	 4	     1.1100	     0.9500;
	165	 1	 0.00	 0.00	 0.0	 0.0	 1	     1.1100	    25.2087	 220.0	 4	     1.1100	     0.9500;
	166	 1	 0.00	 0.00	 0.0	 0.0	 1	     1.0904	    14.0885	 220.0	 4	     1.1100	     0.9500;
	167	 1	 0.00	 0.00	 0.0	 0.0	 1	     1.0992	    13.9576	 220.0	 4	     1.1100	     0.9500;
	168	 1	 0.00	 0.00	 0.0	 0.0	 1	     1.0934	    17.0561	 220.0	 4	     1.1100	     0.9500;
	169	 1	 0.00	 0.00	 0.0	 0.0	 1	     1.0934	    17.0484	 220.0	 4	     1.1100	     0.9500;
	170	 1	 0.00	 0.00	 0.0	 0.0	 1	     1.0281	    16.5618	 400.0	 4	     1.0500	     0.9500;
	171	 1	 0.00	 0.00	 0.0	 0.0	 1	     1.0281	    16.5618	 400.0	 4	     1.0500	     0.9500;
	172	 1	 0.00	 0.00	 0.0	 0.0	 1	     1.0679	    20.6015	 220.0	 4	     1.1100	     0.9500;
	173	 1	 0.00	 0.00	 0.0	 0.0	 1	     1.0679	    20.6077	 220.0	 4	     1.1100	     0.9500;
	174	 1	 0.00	 0.00	 0.0	 0.0	 1	     1.0911	    20.3532	 220.0	 4	     1.1100	     0.9500;
	175	 1	 0.00	 0.00	 0.0	 0.0	 1	     1.0803	    25.2570	 220.0	 4	     1.1100	     0.9500;
	176	 1	 0.00	 0.00	 0.0	 0.0	 1	     1.0803	    25.2660	 220.0	 4	     1.1100	     0.9500;
	177	 1	 0.00	 0.00	 0.0	 0.0	 1	     1.0817	    26.5573	 220.0	 4	     1.1100	     0.9500;
	178	 1	 0.00	 0.00	 0.0	 0.0	 1	     1.0817	    26.5573	 220.0	 4	     1.1100	     0.9500;
	179	 2	 4.68	 1.50	 0.0	 0.0	 1	     1.1099	    21.4869	 220.0	 4	     1.1100	     0.9500;
	180	 1	 0.00	 0.00	 0.0	 0.0	 1	     1.0674	    19.6577	 220.0	 4	     1.1100	     0.9500;
	181	 1	 0.00	 0.00	 0.0	 0.0	 1	     1.0733	    17.5540	 220.0	 5	     1.1100	     0.9500;
	182	 1	 0.00	 0.00	 0.0	 0.0	 1	     1.0911	    16.0046	 220.0	 5	     1.1100	     0.9500;
	183	 1	 0.00	 0.00	 0.0	 0.0	 1	     1.0378	    17.1324	 400.0	 5	     1.0500	     0.9500;
	184	 1	 0.00	 0.00	 0.0	 0.0	 1	     1.0378	    17.1305	 400.0	 5	     1.0500	     0.9500;
	185	 1	 0.00	 0.00	 0.0	 0.0	 1	     1.0321	    19.0822	 400.0	 5	     1.0500	     0.9500;
	186	 1	 0.00	 0.00	 0.0	 0.0	 1	     1.0321	    19.0784	 400.0	 5	     1.0500	     0.9500;
	187	 1	 0.00	 0.00	 0.0	 0.0	 1	     1.0800	    14.8903	 220.0	 5	     1.1100	     0.9500;
	188	 1	 0.00	 0.00	 0.0	 0.0	 1	     1.0800	    14.8891	 220.0	 5	     1.1100	     0.9500;
	189	 1	 0.00	 0.00	 0.0	 0.0	 1	     1.0759	    16.4483	 220.0	 5	     1.1100	     0.9500;
	190	 1	 0.00	 0.00	 0.0	 0.0	 1	     1.0758	    16.4509	 220.0	 5	     1.1100	     0.9500;
	191	 1	 0.00	 0.00	 0.0	 0.0	 1	     1.0183	    20.5020	 400.0	 5	     1.0500	     0.9500;
	192	 1	 0.00	 0.00	 0.0	 0.0	 1	     1.0770	    18.2238	 220.0	 5	     1.1100	     0.9500;
	193	 1	 0.00	 0.00	 0.0	 0.0	 1	     1.0770	    18.2264	 220.0	 5	     1.1100	     0.9500;
	194	 1	 0.00	 0.00	 0.0	 0.0	 1	     1.0327	    17.3551	 400.0	 5	     1.0500	     0.9500;
	195	 1	 0.00	 0.00	 0.0	 0.0	 1	     1.0326	    17.3509	 400.0	 5	     1.0500	     0.9500;
	196	 1	 0.00	 0.00	 0.0	 0.0	 1	     1.0748	    14.5100	 220.0	 5	     1.1100	     0.9500;
	197	 1	 0.00	 0.00	 0.0	 0.0	 1	     1.0748	    14.5099	 220.0	 5	     1.1100	     0.9500;
	198	 1	 0.00	 0.00	 0.0	 -117.0	 1	     1.0293	    18.1841	 400.0	 5	     1.0500	     0.9500;
	199	 1	 0.00	 0.00	 0.0	 0.0	 1	     1.0293	    18.1797	 400.0	 5	     1.0500	     0.9500;
	200	 1	 0.00	 0.00	 0.0	 0.0	 1	     1.0689	    16.1996	 220.0	 5	     1.1100	     0.9500;
...
];

%% generator data
%	bus	Pg	Qg	Qmax	Qmin	Vg	mBase	status	Pmax	Pmin	Pc1	Pc2	Qc1min	Qc1max	Qc2min	Qc2max	ramp_agc	ramp_10	ramp_30	ramp_q	apf
mpc.gen = [
	17	 0.0	 0.0	 120.0	 -51.0	 1.07106	 241.9	 0	 101	 70.0	 0.0	 0.0	 0.0	 0.0	 0.0	 0.0	 0.0	 0.0	 0.0	 0.0	 0.0; % NG
	17	 0.0	 0.0	 120.0	 -30.0	 1.07106	 233.2	 0	 59	 140.0	 0.0	 0.0	 0.0	 0.0	 0.0	 0.0	 0.0	 0.0	 0.0	 0.0	 0.0; % NG
	26	 331.0	 18.0	 394.0	 -394.0	 1.09091	 415.9	 1	 788	 145.0	 0.0	 0.0	 0.0	 0.0	 0.0	 0.0	 0.0	 0.0	 0.0	 0.0	 0.0; % COW
	27	 327.0	 39.0	 288.0	 -288.0	 1.09091	 407.1	 1	 575	 145.0	 0.0	 0.0	 0.0	 0.0	 0.0	 0.0	 0.0	 0.0	 0.0	 0.0	 0.0; % NG
	27	 327.0	 39.0	 321.0	 -321.0	 1.09091	 407.1	 1	 642	 145.0	 0.0	 0.0	 0.0	 0.0	 0.0	 0.0	 0.0	 0.0	 0.0	 0.0	 0.0; % NG
	27	 327.0	 39.0	 190.0	 -179.0	 1.09091	 415.9	 1	 358	 145.0	 0.0	 0.0	 0.0	 0.0	 0.0	 0.0	 0.0	 0.0	 0.0	 0.0	 0.0; % NG
	26	 331.0	 18.0	 307.0	 -307.0	 1.09091	 415.9	 1	 613	 145.0	 0.0	 0.0	 0.0	 0.0	 0.0	 0.0	 0.0	 0.0	 0.0	 0.0	 0.0; % NG
	28	 344.0	 -18.0	 241.0	 -241.0	 1.02665	 415.9	 1	 482	 145.0	 0.0	 0.0	 0.0	 0.0	 0.0	 0.0	 0.0	 0.0	 0.0	 0.0	 0.0; % NG
	28	 0.0	 0.0	 446.0	 -446.0	 1.02665	 415.9	 0	 891	 145.0	 0.0	 0.0	 0.0	 0.0	 0.0	 0.0	 0.0	 0.0	 0.0	 0.0	 0.0; % NUC
	28	 344.0	 -18.0	 190.0	 -175.0	 1.02665	 415.9	 1	 350	 145.0	 0.0	 0.0	 0.0	 0.0	 0.0	 0.0	 0.0	 0.0	 0.0	 0.0	 0.0; % COW
	29	 0.0	 0.0	 190.0	 -67.0	 1.02665	 415.9	 0	 134	 290.0	 0.0	 0.0	 0.0	 0.0	 0.0	 0.0	 0.0	 0.0	 0.0	 0.0	 0.0; % NG
	29	 344.0	 -34.0	 324.0	 -324.0	 1.02665	 415.9	 1	 647	 145.0	 0.0	 0.0	 0.0	 0.0	 0.0	 0.0	 0.0	 0.0	 0.0	 0.0	 0.0; % NG
	29	 344.0	 -34.0	 295.0	 -295.0	 1.02665	 415.9	 1	 590	 145.0	 0.0	 0.0	 0.0	 0.0	 0.0	 0.0	 0.0	 0.0	 0.0	 0.0	 0.0; % COW
	42	 183.0	 20.0	 135.0	 -118.0	 1.09091	 253.9	 1	 236	 65.0	 0.0	 0.0	 0.0	 0.0	 0.0	 0.0	 0.0	 0.0	 0.0	 0.0	 0.0; % NG
	42	 0.0	 0.0	 130.0	 -34.0	 1.09091	 242.7	 0	 39	 135.0	 0.0	 0.0	 0.0	 0.0	 0.0	 0.0	 0.0	 0.0	 0.0	 0.0	 0.0; % NG
	42	 163.0	 20.0	 145.0	 -111.0	 1.09091	 267.7	 1	 221	 55.0	 0.0	 0.0	 0.0	 0.0	 0.0	 0.0	 0.0	 0.0	 0.0	 0.0	 0.0; % NG
	43	 170.0	 23.0	 189.0	 -189.0	 1.09091	 267.7	 1	 377	 60.0	 0.0	 0.0	 0.0	 0.0	 0.0	 0.0	 0.0	 0.0	 0.0	 0.0	 0.0; % COW
	43	 180.0	 23.0	 200.0	 -200.0	 1.09091	 267.7	 1	 400	 65.0	 0.0	 0.0	 0.0	 0.0	 0.0	 0.0	 0.0	 0.0	 0.0	 0.0	 0.0; % NG
	43	 0.0	 0.0	 573.0	 -573.0	 1.09091	 242.7	 0	 1145	 67.5	 0.0	 0.0	 0.0	 0.0	 0.0	 0.0	 0.0	 0.0	 0.0	 0.0	 0.0; % COW
	44	 310.0	 -18.0	 363.0	 -232.0	 1.01857	 646.5	 1	 463	 127.5	 0.0	 0.0	 0.0	 0.0	 0.0	 0.0	 0.0	 0.0	 0.0	 0.0	 0.0; % NG
	44	 0.0	 0.0	 348.0	 -100.0	 1.01857	 659.3	 0	 101	 250.0	 0.0	 0.0	 0.0	 0.0	 0.0	 0.0	 0.0	 0.0	 0.0	 0.0	 0.0; % COW
	54	 158.0	 -12.0	 113.0	 -113.0	 1.09116	 247.9	 1	 225	 64.5	 0.0	 0.0	 0.0	 0.0	 0.0	 0.0	 0.0	 0.0	 0.0	 0.0	 0.0; % NG
	55	 158.0	 46.0	 130.0	 -108.0	 1.09114	 259.9	 1	 215	 64.5	 0.0	 0.0	 0.0	 0.0	 0.0	 0.0	 0.0	 0.0	 0.0	 0.0	 0.0; % NG
	54	 0.0	 0.0	 167.0	 -167.0	 1.09116	 259.9	 0	 333	 64.5	 0.0	 0.0	 0.0	 0.0	 0.0	 0.0	 0.0	 0.0	 0.0	 0.0	 0.0; % COW
	56	 236.0	 -26.0	 175.0	 -175.0	 1.04039	 259.9	 1	 349	 64.5	 0.0	 0.0	 0.0	 0.0	 0.0	 0.0	 0.0	 0.0	 0.0	 0.0	 0.0; % NG
	57	 238.0	 32.0	 140.0	 -140.0	 1.04036	 259.9	 1	 280	 64.5	 0.0	 0.0	 0.0	 0.0	 0.0	 0.0	 0.0	 0.0	 0.0	 0.0	 0.0; % NG
	57	 0.0	 0.0	 104.0	 -2.0	 1.04036	 247.9	 0	 3	 129.0	 0.0	 0.0	 0.0	 0.0	 0.0	 0.0	 0.0	 0.0	 0.0	 0.0	 0.0; % NG
	57	 238.0	 32.0	 135.0	 -135.0	 1.04036	 259.9	 1	 269	 64.5	 0.0	 0.0	 0.0	 0.0	 0.0	 0.0	 0.0	 0.0	 0.0	 0.0	 0.0; % COW
	58	 104.0	 -63.0	 90.0	 -90.0	 1.08754	 66.5	 1	 180	 24.05	 0.0	 0.0	 0.0	 0.0	 0.0	 0.0	 0.0	 0.0	 0.0	 0.0	 0.0; % NG
	77	 198.0	 29.0	 168.0	 -168.0	 1.09091	 256.4	 1	 335	 70.0	 0.0	 0.0	 0.0	 0.0	 0.0	 0.0	 0.0	 0.0	 0.0	 0.0	 0.0; % NG
	77	 198.0	 29.0	 214.0	 -214.0	 1.09091	 256.4	 1	 428	 70.0	 0.0	 0.0	 0.0	 0.0	 0.0	 0.0	 0.0	 0.0	 0.0	 0.0	 0.0; % COW
	78	 0.0	 0.0	 196.0	 -196.0	 1.09091	 252.0	 0	 391	 70.0	 0.0	 0.0	 0.0	 0.0	 0.0	 0.0	 0.0	 0.0	 0.0	 0.0	 0.0; % NG
	78	 197.0	 -2.0	 148.0	 -148.0	 1.09091	 256.4	 1	 295	 70.0	 0.0	 0.0	 0.0	 0.0	 0.0	 0.0	 0.0	 0.0	 0.0	 0.0	 0.0; % NG
	78	 197.0	 -2.0	 282.0	 -282.0	 1.09091	 256.4	 1	 564	 70.0	 0.0	 0.0	 0.0	 0.0	 0.0	 0.0	 0.0	 0.0	 0.0	 0.0	 0.0; % NG
	81	 294.0	 155.0	 287.0	 -287.0	 1.02168	 445.2	 1	 573	 110.0	 0.0	 0.0	 0.0	 0.0	 0.0	 0.0	 0.0	 0.0	 0.0	 0.0	 0.0; % NG
	81	 0.0	 0.0	 228.0	 -30.0	 1.02168	 434.6	 0	 54	 220.0	 0.0	 0.0	 0.0	 0.0	 0.0	 0.0	 0.0	 0.0	 0.0	 0.0	 0.0; % COW
	97	 65.0	 -11.0	 75.0	 -75.0	 1.08955	 12.0	 1	 149	 4.5	 0.0	 0.0	 0.0	 0.0	 0.0	 0.0	 0.0	 0.0	 0.0	 0.0	 0.0; % NG
	97	 62.0	 -11.0	 41.0	 -41.0	 1.08955	 6.1	 1	 81	 3.0	 0.0	 0.0	 0.0	 0.0	 0.0	 0.0	 0.0	 0.0	 0.0	 0.0	 0.0; % NG
	103	 227.0	 46.0	 161.0	 -161.0	 1.08905	 256.4	 1	 321	 67.0	 0.0	 0.0	 0.0	 0.0	 0.0	 0.0	 0.0	 0.0	 0.0	 0.0	 0.0; % NG
	104	 0.0	 0.0	 123.0	 -37.0	 1.08898	 256.4	 0	 74	 67.0	 0.0	 0.0	 0.0	 0.0	 0.0	 0.0	 0.0	 0.0	 0.0	 0.0	 0.0; % NG
	105	 161.0	 98.0	 117.6	 -117.6	 1.0875	 144.2	 1	 229	 39.5	 0.0	 0.0	 0.0	 0.0	 0.0	 0.0	 0.0	 0.0	 0.0	 0.0	 0.0; % NG
	106	 0.0	 0.0	 106.0	 -106.0	 1.0874	 144.2	 0	 211	 39.5	 0.0	 0.0	 0.0	 0.0	 0.0	 0.0	 0.0	 0.0	 0.0	 0.0	 0.0; % NG
	115	 0.0	 0.0	 90.0	 -20.0	 1.08993	 150.0	 0	 8	 90.0	 0.0	 0.0	 0.0	 0.0	 0.0	 0.0	 0.0	 0.0	 0.0	 0.0	 0.0; % NG
	116	 130.0	 -10.0	 168.0	 -168.0	 1.08992	 145.3	 1	 336	 35.0	 0.0	 0.0	 0.0	 0.0	 0.0	 0.0	 0.0	 0.0	 0.0	 0.0	 0.0; % COW
	117	 141.0	 29.0	 91.0	 -91.0	 1.08788	 117.0	 1	 181	 40.0	 0.0	 0.0	 0.0	 0.0	 0.0	 0.0	 0.0	 0.0	 0.0	 0.0	 0.0; % NG
	124	 222.0	 -59.0	 292.0	 -292.0	 1.09093	 253.9	 1	 584	 80.0	 0.0	 0.0	 0.0	 0.0	 0.0	 0.0	 0.0	 0.0	 0.0	 0.0	 0.0; % NG
	125	 199.0	 44.0	 183.0	 -183.0	 1.09091	 265.0	 1	 365	 70.0	 0.0	 0.0	 0.0	 0.0	 0.0	 0.0	 0.0	 0.0	 0.0	 0.0	 0.0; % COW
	125	 219.0	 44.0	 142.0	 -142.0	 1.09091	 253.9	 1	 284	 80.0	 0.0	 0.0	 0.0	 0.0	 0.0	 0.0	 0.0	 0.0	 0.0	 0.0	 0.0; % NG
	126	 236.0	 -17.0	 289.0	 -289.0	 1.02511	 265.0	 1	 577	 70.0	 0.0	 0.0	 0.0	 0.0	 0.0	 0.0	 0.0	 0.0	 0.0	 0.0	 0.0; % NG
	126	 0.0	 0.0	 296.0	 -296.0	 1.02511	 259.2	 0	 591	 80.0	 0.0	 0.0	 0.0	 0.0	 0.0	 0.0	 0.0	 0.0	 0.0	 0.0	 0.0; % COW
	131	 113.0	 21.0	 101.0	 -101.0	 1.08591	 131.2	 1	 202	 0.0	 0.0	 0.0	 0.0	 0.0	 0.0	 0.0	 0.0	 0.0	 0.0	 0.0	 0.0; % NG
	131	 0.0	 0.0	 40.0	 -38.0	 1.08591	 131.2	 0	 6	 0.0	 0.0	 0.0	 0.0	 0.0	 0.0	 0.0	 0.0	 0.0	 0.0	 0.0	 0.0; % COW
	132	 0.0	 0.0	 45.0	 -45.0	 1.08371	 131.2	 0	 90	 0.0	 0.0	 0.0	 0.0	 0.0	 0.0	 0.0	 0.0	 0.0	 0.0	 0.0	 0.0; % NG
	132	 0.0	 0.0	 58.0	 -58.0	 1.08371	 131.2	 0	 116	 0.0	 0.0	 0.0	 0.0	 0.0	 0.0	 0.0	 0.0	 0.0	 0.0	 0.0	 0.0; % NG
	133	 0.0	 0.0	 90.0	 -11.0	 1.09091	 150.0	 0	 21	 100.0	 0.0	 0.0	 0.0	 0.0	 0.0	 0.0	 0.0	 0.0	 0.0	 0.0	 0.0; % NG
	133	 128.0	 -10.0	 95.0	 -95.0	 1.09091	 150.0	 1	 189	 50.0	 0.0	 0.0	 0.0	 0.0	 0.0	 0.0	 0.0	 0.0	 0.0	 0.0	 0.0; % NG
	134	 128.0	 2.0	 90.0	 -68.0	 1.09091	 150.0	 1	 135	 50.0	 0.0	 0.0	 0.0	 0.0	 0.0	 0.0	 0.0	 0.0	 0.0	 0.0	 0.0; % PEL
	145	 0.0	 0.0	 60.0	 -60.0	 1.08954	 51.4	 0	 119	 15.0	 0.0	 0.0	 0.0	 0.0	 0.0	 0.0	 0.0	 0.0	 0.0	 0.0	 0.0; % NG
	145	 0.0	 0.0	 37.0	 -37.0	 1.08954	 51.4	 0	 74	 15.0	 0.0	 0.0	 0.0	 0.0	 0.0	 0.0	 0.0	 0.0	 0.0	 0.0	 0.0; % NG
	146	 0.0	 0.0	 90.0	 -72.0	 1.08953	 150.0	 0	 144	 45.0	 0.0	 0.0	 0.0	 0.0	 0.0	 0.0	 0.0	 0.0	 0.0	 0.0	 0.0; % NG
	147	 0.0	 0.0	 149.0	 -66.0	 1.08582	 267.4	 0	 132	 45.0	 0.0	 0.0	 0.0	 0.0	 0.0	 0.0	 0.0	 0.0	 0.0	 0.0	 0.0; % COW
	147	 0.0	 0.0	 149.0	 -48.0	 1.08582	 253.4	 0	 1	 135.0	 0.0	 0.0	 0.0	 0.0	 0.0	 0.0	 0.0	 0.0	 0.0	 0.0	 0.0; % NG
	147	 0.0	 0.0	 149.0	 -48.0	 1.08582	 253.4	 0	 60	 135.0	 0.0	 0.0	 0.0	 0.0	 0.0	 0.0	 0.0	 0.0	 0.0	 0.0	 0.0; % NG
	147	 145.0	 -108.0	 149.0	 -129.6	 1.08582	 267.4	 1	 148	 45.0	 0.0	 0.0	 0.0	 0.0	 0.0	 0.0	 0.0	 0.0	 0.0	 0.0	 0.0; % NG
	149	 205.0	 179.0	 214.8	 -214.8	 1.02501	 253.8	 1	 232	 45.0	 0.0	 0.0	 0.0	 0.0	 0.0	 0.0	 0.0	 0.0	 0.0	 0.0	 0.0; % NG
	150	 206.0	 27.0	 149.0	 -126.0	 1.025	 267.4	 1	 252	 45.0	 0.0	 0.0	 0.0	 0.0	 0.0	 0.0	 0.0	 0.0	 0.0	 0.0	 0.0; % NG
	150	 0.0	 0.0	 123.0	 -23.0	 1.025	 253.8	 0	 26	 90.0	 0.0	 0.0	 0.0	 0.0	 0.0	 0.0	 0.0	 0.0	 0.0	 0.0	 0.0; % NG
	154	 184.0	 34.0	 149.0	 -111.0	 1.09091	 278.3	 1	 222	 47.0	 0.0	 0.0	 0.0	 0.0	 0.0	 0.0	 0.0	 0.0	 0.0	 0.0	 0.0; % NG
	154	 0.0	 0.0	 149.0	 -53.0	 1.09091	 278.3	 0	 50	 47.0	 0.0	 0.0	 0.0	 0.0	 0.0	 0.0	 0.0	 0.0	 0.0	 0.0	 0.0; % NG
	154	 194.0	 34.0	 120.0	 -119.0	 1.09091	 287.3	 1	 237	 52.0	 0.0	 0.0	 0.0	 0.0	 0.0	 0.0	 0.0	 0.0	 0.0	 0.0	 0.0; % NG
	154	 0.0	 0.0	 132.0	 -102.0	 1.09091	 292.5	 0	 204	 52.0	 0.0	 0.0	 0.0	 0.0	 0.0	 0.0	 0.0	 0.0	 0.0	 0.0	 0.0; % NG
	155	 0.0	 0.0	 120.0	 -64.0	 1.09091	 287.3	 0	 128	 52.0	 0.0	 0.0	 0.0	 0.0	 0.0	 0.0	 0.0	 0.0	 0.0	 0.0	 0.0; % COW
	155	 218.0	 3.0	 306.0	 -306.0	 1.09091	 236.0	 1	 611	 65.0	 0.0	 0.0	 0.0	 0.0	 0.0	 0.0	 0.0	 0.0	 0.0	 0.0	 0.0; % COW
	155	 208.0	 3.0	 155.0	 -155.0	 1.09091	 233.1	 1	 309	 60.0	 0.0	 0.0	 0.0	 0.0	 0.0	 0.0	 0.0	 0.0	 0.0	 0.0	 0.0; % NG
	155	 0.0	 0.0	 109.0	 -20.0	 1.09091	 233.1	 0	 6	 120.0	 0.0	 0.0	 0.0	 0.0	 0.0	 0.0	 0.0	 0.0	 0.0	 0.0	 0.0; % NG
	157	 219.0	 188.0	 225.6	 -225.6	 1.00076	 233.1	 1	 318	 60.0	 0.0	 0.0	 0.0	 0.0	 0.0	 0.0	 0.0	 0.0	 0.0	 0.0	 0.0; % NG
	163	 0.0	 0.0	 104.0	 -33.0	 1.09091	 225.4	 0	 65	 150.0	 0.0	 0.0	 0.0	 0.0	 0.0	 0.0	 0.0	 0.0	 0.0	 0.0	 0.0; % NG
	163	 185.0	 72.0	 133.0	 -133.0	 1.09091	 225.4	 1	 266	 75.0	 0.0	 0.0	 0.0	 0.0	 0.0	 0.0	 0.0	 0.0	 0.0	 0.0	 0.0; % NG
	164	 185.0	 30.0	 115.0	 -115.0	 1.09091	 225.4	 1	 229	 75.0	 0.0	 0.0	 0.0	 0.0	 0.0	 0.0	 0.0	 0.0	 0.0	 0.0	 0.0; % NG
	164	 185.0	 30.0	 148.0	 -148.0	 1.09091	 225.4	 1	 296	 75.0	 0.0	 0.0	 0.0	 0.0	 0.0	 0.0	 0.0	 0.0	 0.0	 0.0	 0.0; % NG
	179	 225.0	 6.0	 161.0	 -161.0	 1.09091	 219.5	 1	 322	 85.0	 0.0	 0.0	 0.0	 0.0	 0.0	 0.0	 0.0	 0.0	 0.0	 0.0	 0.0; % NG
	204	 60.0	 17.0	 110.0	 -60.0	 1.025	 210.1	 1	 79	 0.0	 0.0	 0.0	 0.0	 0.0	 0.0	 0.0	 0.0	 0.0	 0.0	 0.0	 0.0; % NG
	204	 60.0	 17.0	 110.0	 -60.0	 1.025	 210.1	 1	 74	 0.0	 0.0	 0.0	 0.0	 0.0	 0.0	 0.0	 0.0	 0.0	 0.0	 0.0	 0.0; % NG
	204	 60.0	 17.0	 110.0	 -63.0	 1.025	 210.1	 1	 125	 0.0	 0.0	 0.0	 0.0	 0.0	 0.0	 0.0	 0.0	 0.0	 0.0	 0.0	 0.0; % NG
	205	 60.0	 -19.0	 110.0	 -60.0	 1.025	 210.1	 1	 86	 0.0	 0.0	 0.0	 0.0	 0.0	 0.0	 0.0	 0.0	 0.0	 0.0	 0.0	 0.0; % NG
	214	 77.0	 -7.0	 91.0	 -91.0	 1.09209	 58.5	 1	 181	 17.5	 0.0	 0.0	 0.0	 0.0	 0.0	 0.0	 0.0	 0.0	 0.0	 0.0	 0.0; % NG
	214	 0.0	 0.0	 20.0	 0.0	 1.09209	 53.9	 0	 0	 0.0	 0.0	 0.0	 0.0	 0.0	 0.0	 0.0	 0.0	 0.0	 0.0	 0.0	 0.0; % SYNC
	214	 0.0	 0.0	 20.0	 0.0	 1.09209	 53.9	 0	 0	 0.0	 0.0	 0.0	 0.0	 0.0	 0.0	 0.0	 0.0	 0.0	 0.0	 0.0	 0.0; % SYNC
	214	 52.0	 -7.0	 33.0	 -33.0	 1.09209	 30.5	 1	 65	 5.0	 0.0	 0.0	 0.0	 0.0	 0.0	 0.0	 0.0	 0.0	 0.0	 0.0	 0.0; % NG
	220	 25.0	 -7.0	 56.0	 -56.0	 1.08853	 2.3	 1	 112	 0.775	 0.0	 0.0	 0.0	 0.0	 0.0	 0.0	 0.0	 0.0	 0.0	 0.0	 0.0; % PEL
	221	 41.0	 -2.0	 31.0	 -31.0	 1.07119	 2.3	 1	 62	 0.775	 0.0	 0.0	 0.0	 0.0	 0.0	 0.0	 0.0	 0.0	 0.0	 0.0	 0.0; % PEL
	239	 99.0	 2.0	 57.0	 -57.0	 1.05821	 9.8	 1	 113	 3.5	 0.0	 0.0	 0.0	 0.0	 0.0	 0.0	 0.0	 0.0	 0.0	 0.0	 0.0; % NG
	246	 333.0	 100.0	 202.0	 -202.0	 1.03937	 415.9	 1	 404	 145.0	 0.0	 0.0	 0.0	 0.0	 0.0	 0.0	 0.0	 0.0	 0.0	 0.0	 0.0; % NG
	309	 0.0	 0.0	 7.0	 0.0	 1.08081	 27.9	 0	 0	 0.0	 0.0	 0.0	 0.0	 0.0	 0.0	 0.0	 0.0	 0.0	 0.0	 0.0	 0.0; % SYNC
	309	 0.0	 0.0	 7.0	 0.0	 1.08081	 27.9	 0	 0	 0.0	 0.0	 0.0	 0.0	 0.0	 0.0	 0.0	 0.0	 0.0	 0.0	 0.0	 0.0; % SYNC
	309	 59.0	 7.0	 64.0	 -64.0	 1.08081	 30.8	 1	 127	 5.5	 0.0	 0.0	 0.0	 0.0	 0.0	 0.0	 0.0	 0.0	 0.0	 0.0	 0.0; % NG
	309	 0.0	 0.0	 7.0	 0.0	 1.08081	 27.9	 0	 0	 0.0	 0.0	 0.0	 0.0	 0.0	 0.0	 0.0	 0.0	 0.0	 0.0	 0.0	 0.0; % SYNC
	309	 0.0	 0.0	 6.0	 0.0	 1.08081	 27.7	 0	 0	 0.0	 0.0	 0.0	 0.0	 0.0	 0.0	 0.0	 0.0	 0.0	 0.0	 0.0	 0.0; % SYNC
	309	 0.0	 0.0	 7.0	 0.0	 1.08081	 27.9	 0	 0	 0.0	 0.0	 0.0	 0.0	 0.0	 0.0	 0.0	 0.0	 0.0	 0.0	 0.0	 0.0; % SYNC
	309	 0.0	 0.0	 7.0	 0.0	 1.08081	 27.9	 0	 0	 0.0	 0.0	 0.0	 0.0	 0.0	 0.0	 0.0	 0.0	 0.0	 0.0	 0.0	 0.0; % SYNC
	310	 63.0	 3.0	 125.0	 -125.0	 1.08142	 36.7	 1	 250	 7.5	 0.0	 0.0	 0.0	 0.0	 0.0	 0.0	 0.0	 0.0	 0.0	 0.0	 0.0; % NG
	310	 0.0	 0.0	 15.0	 0.0	 1.08142	 57.0	 0	 0	 0.0	 0.0	 0.0	 0.0	 0.0	 0.0	 0.0	 0.0	 0.0	 0.0	 0.0	 0.0; % SYNC
	311	 122.0	 23.0	 146.0	 -146.0	 1.0633	 36.7	 1	 292	 7.5	 0.0	 0.0	 0.0	 0.0	 0.0	 0.0	 0.0	 0.0	 0.0	 0.0	 0.0; % NG
	311	 0.0	 0.0	 15.0	 0.0	 1.0633	 57.0	 0	 0	 0.0	 0.0	 0.0	 0.0	 0.0	 0.0	 0.0	 0.0	 0.0	 0.0	 0.0	 0.0; % SYNC
	313	 75.0	 -3.0	 69.0	 -69.0	 1.08629	 53.9	 1	 137	 15.0	 0.0	 0.0	 0.0	 0.0	 0.0	 0.0	 0.0	 0.0	 0.0	 0.0	 0.0; % NG
	313	 0.0	 0.0	 20.0	 0.0	 1.08629	 53.9	 0	 0	 0.0	 0.0	 0.0	 0.0	 0.0	 0.0	 0.0	 0.0	 0.0	 0.0	 0.0	 0.0; % SYNC
	314	 0.0	 0.0	 40.0	 0.0	 1.07946	 107.7	 0	 0	 0.0	 0.0	 0.0	 0.0	 0.0	 0.0	 0.0	 0.0	 0.0	 0.0	 0.0	 0.0; % SYNC
	322	 48.0	 6.0	 42.0	 -42.0	 1.08468	 4.1	 1	 83	 1.25	 0.0	 0.0	 0.0	 0.0	 0.0	 0.0	 0.0	 0.0	 0.0	 0.0	 0.0; % PEL
	365	 120.0	 1.0	 132.0	 -132.0	 1.08196	 47.8	 1	 264	 21.625	 0.0	 0.0	 0.0	 0.0	 0.0	 0.0	 0.0	 0.0	 0.0	 0.0	 0.0; % NG
	366	 109.0	 15.0	 55.0	 -55.0	 1.06579	 47.8	 1	 110	 21.625	 0.0	 0.0	 0.0	 0.0	 0.0	 0.0	 0.0	 0.0	 0.0	 0.0	 0.0; % PEL
	367	 109.0	 -12.0	 82.0	 -82.0	 1.08899	 47.8	 1	 164	 21.625	 0.0	 0.0	 0.0	 0.0	 0.0	 0.0	 0.0	 0.0	 0.0	 0.0	 0.0; % NG
	368	 98.0	 -3.0	 158.0	 -158.0	 1.08537	 47.8	 1	 316	 21.625	 0.0	 0.0	 0.0	 0.0	 0.0	 0.0	 0.0	 0.0	 0.0	 0.0	 0.0; % NG
	385	 188.0	 -36.0	 138.0	 -112.0	 1.09091	 251.3	 1	 223	 70.0	 0.0	 0.0	 0.0	 0.0	 0.0	 0.0	 0.0	 0.0	 0.0	 0.0	 0.0; % NG
	385	 0.0	 0.0	 31.0	 -31.0	 1.09091	 26.9	 0	 61	 6.0	 0.0	 0.0	 0.0	 0.0	 0.0	 0.0	 0.0	 0.0	 0.0	 0.0	 0.0; % NG
	386	 115.0	 -8.0	 148.0	 -148.0	 1.0782	 19.7	 1	 296	 5.0	 0.0	 0.0	 0.0	 0.0	 0.0	 0.0	 0.0	 0.0	 0.0	 0.0	 0.0; % NG
	443	 48.0	 4.0	 30.0	 -30.0	 1.04966	 3.6	 1	 60	 0.75	 0.0	 0.0	 0.0	 0.0	 0.0	 0.0	 0.0	 0.0	 0.0	 0.0	 0.0; % PEL
	452	 34.0	 -7.0	 24.0	 -24.0	 1.07378	 6.1	 1	 47	 2.605	 0.0	 0.0	 0.0	 0.0	 0.0	 0.0	 0.0	 0.0	 0.0	 0.0	 0.0; % NG
	452	 0.0	 0.0	 2.0	 0.0	 1.07378	 6.1	 0	 0	 0.0	 0.0	 0.0	 0.0	 0.0	 0.0	 0.0	 0.0	 0.0	 0.0	 0.0	 0.0; % SYNC
	485	 38.0	 11.0	 31.0	 -31.0	 1.05018	 1.7	 1	 61	 0.7	 0.0	 0.0	 0.0	 0.0	 0.0	 0.0	 0.0	 0.0	 0.0	 0.0	 0.0; % PEL
	536	 175.0	 3.0	 132.0	 -132.0	 1.06099	 53.9	 1	 263	 20.0	 0.0	 0.0	 0.0	 0.0	 0.0	 0.0	 0.0	 0.0	 0.0	 0.0	 0.0; % PEL
	536	 0.0	 0.0	 14.0	 0.0	 1.06099	 34.9	 0	 0	 0.0	 0.0	 0.0	 0.0	 0.0	 0.0	 0.0	 0.0	 0.0	 0.0	 0.0	 0.0; % SYNC
	536	 0.0	 0.0	 14.0	 0.0	 1.06099	 34.0	 0	 0	 0.0	 0.0	 0.0	 0.0	 0.0	 0.0	 0.0	 0.0	 0.0	 0.0	 0.0	 0.0; % SYNC
	536	 0.0	 0.0	 14.0	 0.0	 1.06099	 105.9	 0	 0	 0.0	 0.0	 0.0	 0.0	 0.0	 0.0	 0.0	 0.0	 0.0	 0.0	 0.0	 0.0; % SYNC
	536	 0.0	 0.0	 14.0	 0.0	 1.06099	 105.9	 0	 0	 0.0	 0.0	 0.0	 0.0	 0.0	 0.0	 0.0	 0.0	 0.0	 0.0	 0.0	 0.0; % SYNC
	537	 114.0	 23.0	 179.0	 -179.0	 1.05485	 36.5	 1	 358	 12.5	 0.0	 0.0	 0.0	 0.0	 0.0	 0.0	 0.0	 0.0	 0.0	 0.0	 0.0; % NG
	537	 114.0	 23.0	 214.0	 -214.0	 1.05485	 35.6	 1	 428	 12.5	 0.0	 0.0	 0.0	 0.0	 0.0	 0.0	 0.0	 0.0	 0.0	 0.0	 0.0; % NG
	537	 0.0	 0.0	 17.5	 0.0	 1.05485	 126.2	 0	 0	 0.0	 0.0	 0.0	 0.0	 0.0	 0.0	 0.0	 0.0	 0.0	 0.0	 0.0	 0.0; % SYNC
	537	 0.0	 0.0	 17.5	 0.0	 1.05485	 106.4	 0	 0	 0.0	 0.0	 0.0	 0.0	 0.0	 0.0	 0.0	 0.0	 0.0	 0.0	 0.0	 0.0; % SYNC
	551	 84.0	 -5.0	 48.0	 -48.0	 1.05264	 1.7	 1	 96	 0.7	 0.0	 0.0	 0.0	 0.0	 0.0	 0.0	 0.0	 0.0	 0.0	 0.0	 0.0; % PEL
	559	 146.0	 7.0	 89.0	 -89.0	 1.05731	 34.4	 1	 177	 15.0	 0.0	 0.0	 0.0	 0.0	 0.0	 0.0	 0.0	 0.0	 0.0	 0.0	 0.0; % PEL
	559	 0.0	 0.0	 5.0	 0.0	 1.05731	 28.4	 0	 0	 0.0	 0.0	 0.0	 0.0	 0.0	 0.0	 0.0	 0.0	 0.0	 0.0	 0.0	 0.0; % SYNC
	559	 0.0	 0.0	 5.0	 0.0	 1.05731	 26.5	 0	 0	 0.0	 0.0	 0.0	 0.0	 0.0	 0.0	 0.0	 0.0	 0.0	 0.0	 0.0	 0.0; % SYNC
	559	 0.0	 0.0	 5.0	 0.0	 1.05731	 30.4	 0	 0	 0.0	 0.0	 0.0	 0.0	 0.0	 0.0	 0.0	 0.0	 0.0	 0.0	 0.0	 0.0; % SYNC
	559	 0.0	 0.0	 5.0	 0.0	 1.05731	 34.4	 0	 0	 0.0	 0.0	 0.0	 0.0	 0.0	 0.0	 0.0	 0.0	 0.0	 0.0	 0.0	 0.0; % SYNC
	560	 198.0	 14.0	 162.0	 -162.0	 1.05563	 34.4	 1	 324	 15.0	 0.0	 0.0	 0.0	 0.0	 0.0	 0.0	 0.0	 0.0	 0.0	 0.0	 0.0; % COW
	560	 0.0	 0.0	 5.0	 0.0	 1.05563	 34.4	 0	 0	 0.0	 0.0	 0.0	 0.0	 0.0	 0.0	 0.0	 0.0	 0.0	 0.0	 0.0	 0.0; % SYNC
	560	 0.0	 0.0	 5.0	 0.0	 1.05563	 26.5	 0	 0	 0.0	 0.0	 0.0	 0.0	 0.0	 0.0	 0.0	 0.0	 0.0	 0.0	 0.0	 0.0; % SYNC
	560	 0.0	 0.0	 5.0	 0.0	 1.05563	 34.4	 0	 0	 0.0	 0.0	 0.0	 0.0	 0.0	 0.0	 0.0	 0.0	 0.0	 0.0	 0.0	 0.0; % SYNC
	573	 45.0	 -10.0	 57.0	 -57.0	 1.07878	 8.9	 1	 113	 0.5	 0.0	 0.0	 0.0	 0.0	 0.0	 0.0	 0.0	 0.0	 0.0	 0.0	 0.0; % PEL
	626	 90.0	 1.0	 118.0	 -118.0	 1.09062	 97.7	 1	 236	 39.0	 0.0	 0.0	 0.0	 0.0	 0.0	 0.0	 0.0	 0.0	 0.0	 0.0	 0.0; % NG
	626	 42.0	 1.0	 31.0	 -31.0	 1.09062	 46.8	 1	 62	 15.0	 0.0	 0.0	 0.0	 0.0	 0.0	 0.0	 0.0	 0.0	 0.0	 0.0	 0.0; % PEL
	664	 178.0	 26.0	 180.0	 -180.0	 1.09109	 267.7	 1	 359	 65.0	 0.0	 0.0	 0.0	 0.0	 0.0	 0.0	 0.0	 0.0	 0.0	 0.0	 0.0; % NG
	665	 0.0	 0.0	 204.0	 -204.0	 1.09081	 267.7	 0	 407	 65.0	 0.0	 0.0	 0.0	 0.0	 0.0	 0.0	 0.0	 0.0	 0.0	 0.0	 0.0; % NG
	685	 158.0	 -1.0	 118.0	 -118.0	 1.0956	 182.5	 1	 235	 75.0	 0.0	 0.0	 0.0	 0.0	 0.0	 0.0	 0.0	 0.0	 0.0	 0.0	 0.0; % NG
	685	 58.0	 -1.0	 57.0	 -57.0	 1.0956	 77.5	 1	 114	 25.0	 0.0	 0.0	 0.0	 0.0	 0.0	 0.0	 0.0	 0.0	 0.0	 0.0	 0.0; % NG
	691	 35.0	 -4.0	 43.0	 -43.0	 1.08826	 3.1	 1	 86	 1.215	 0.0	 0.0	 0.0	 0.0	 0.0	 0.0	 0.0	 0.0	 0.0	 0.0	 0.0; % PEL
	716	 15.0	 11.0	 19.0	 -19.0	 1.0787	 10.1	 1	 38	 0.735	 0.0	 0.0	 0.0	 0.0	 0.0	 0.0	 0.0	 0.0	 0.0	 0.0	 0.0; % NG
	740	 135.0	 -59.0	 182.0	 -182.0	 1.09091	 259.9	 1	 363	 64.5	 0.0	 0.0	 0.0	 0.0	 0.0	 0.0	 0.0	 0.0	 0.0	 0.0	 0.0; % COW
	763	 135.0	 11.0	 244.0	 -244.0	 1.07793	 105.4	 1	 488	 43.0	 0.0	 0.0	 0.0	 0.0	 0.0	 0.0	 0.0	 0.0	 0.0	 0.0	 0.0; % COW
	792	 83.0	 13.0	 73.0	 -73.0	 1.05313	 8.4	 1	 145	 0.5	 0.0	 0.0	 0.0	 0.0	 0.0	 0.0	 0.0	 0.0	 0.0	 0.0	 0.0; % PEL
	796	 67.0	 12.0	 73.0	 -73.0	 1.06122	 71.9	 1	 146	 2.5	 0.0	 0.0	 0.0	 0.0	 0.0	 0.0	 0.0	 0.0	 0.0	 0.0	 0.0; % PEL
	796	 0.0	 0.0	 74.0	 -74.0	 1.06122	 71.9	 0	 148	 2.5	 0.0	 0.0	 0.0	 0.0	 0.0	 0.0	 0.0	 0.0	 0.0	 0.0	 0.0; % NG
	796	 0.0	 0.0	 170.0	 -170.0	 1.06122	 32.9	 0	 339	 8.0	 0.0	 0.0	 0.0	 0.0	 0.0	 0.0	 0.0	 0.0	 0.0	 0.0	 0.0; % NG
	796	 0.0	 0.0	 19.0	 -19.0	 1.06122	 32.6	 0	 37	 8.0	 0.0	 0.0	 0.0	 0.0	 0.0	 0.0	 0.0	 0.0	 0.0	 0.0	 0.0; % PEL
	807	 0.0	 0.0	 89.0	 -89.0	 1.08198	 125.4	 0	 178	 42.0	 0.0	 0.0	 0.0	 0.0	 0.0	 0.0	 0.0	 0.0	 0.0	 0.0	 0.0; % NG
	808	 115.0	 13.0	 92.0	 -92.0	 1.08715	 125.4	 1	 184	 46.0	 0.0	 0.0	 0.0	 0.0	 0.0	 0.0	 0.0	 0.0	 0.0	 0.0	 0.0; % NG
	845	 29.0	 6.0	 48.0	 -48.0	 1.07142	 33.0	 1	 95	 7.5	 0.0	 0.0	 0.0	 0.0	 0.0	 0.0	 0.0	 0.0	 0.0	 0.0	 0.0; % PEL
	845	 29.0	 6.0	 36.0	 -36.0	 1.07142	 33.0	 1	 71	 7.5	 0.0	 0.0	 0.0	 0.0	 0.0	 0.0	 0.0	 0.0	 0.0	 0.0	 0.0; % NG
	845	 0.0	 0.0	 0.0	 0.0	 1.07142	 19.0	 0	 0	 0.0	 0.0	 0.0	 0.0	 0.0	 0.0	 0.0	 0.0	 0.0	 0.0	 0.0	 0.0; % SYNC
	845	 0.0	 0.0	 0.0	 0.0	 1.07142	 19.0	 0	 0	 0.0	 0.0	 0.0	 0.0	 0.0	 0.0	 0.0	 0.0	 0.0	 0.0	 0.0	 0.0; % SYNC
	877	 76.0	 12.0	 80.0	 -80.0	 1.08527	 87.7	 1	 159	 17.5	 0.0	 0.0	 0.0	 0.0	 0.0	 0.0	 0.0	 0.0	 0.0	 0.0	 0.0; % COW
	900	 0.0	 0.0	 45.0	 -10.0	 1.07146	 65.8	 0	 0	 0.0	 0.0	 0.0	 0.0	 0.0	 0.0	 0.0	 0.0	 0.0	 0.0	 0.0	 0.0; % SYNC
	900	 169.0	 68.0	 107.0	 -107.0	 1.07146	 71.1	 1	 213	 25.0	 0.0	 0.0	 0.0	 0.0	 0.0	 0.0	 0.0	 0.0	 0.0	 0.0	 0.0; % NG
	900	 0.0	 0.0	 45.0	 -10.0	 1.07146	 71.1	 0	 0	 0.0	 0.0	 0.0	 0.0	 0.0	 0.0	 0.0	 0.0	 0.0	 0.0	 0.0	 0.0; % SYNC
	975	 0.0	 0.0	 110.0	 -40.0	 1.07686	 162.2	 0	 0	 0.0	 0.0	 0.0	 0.0	 0.0	 0.0	 0.0	 0.0	 0.0	 0.0	 0.0	 0.0; % SYNC
	976	 126.0	 24.0	 110.0	 -84.0	 1.08609	 162.2	 1	 167	 50.0	 0.0	 0.0	 0.0	 0.0	 0.0	 0.0	 0.0	 0.0	 0.0	 0.0	 0.0; % NG
	980	 0.0	 0.0	 0.0	 0.0	 1.08643	 16.8	 0	 0	 0.0	 0.0	 0.0	 0.0	 0.0	 0.0	 0.0	 0.0	 0.0	 0.0	 0.0	 0.0; % SYNC
	1001	 261.0	 -7.0	 240.0	 -191.0	 1.10276	 454.5	 1	 381	 110.0	 0.0	 0.0	 0.0	 0.0	 0.0	 0.0	 0.0	 0.0	 0.0	 0.0	 0.0; % NG
	1002	 261.0	 18.0	 227.0	 -152.0	 1.09091	 434.1	 1	 303	 110.0	 0.0	 0.0	 0.0	 0.0	 0.0	 0.0	 0.0	 0.0	 0.0	 0.0	 0.0; % COW
	1006	 31.0	 5.0	 39.0	 -39.0	 1.08426	 7.1	 1	 78	 3.0	 0.0	 0.0	 0.0	 0.0	 0.0	 0.0	 0.0	 0.0	 0.0	 0.0	 0.0; % NG
	1005	 29.0	 -5.0	 16.0	 -16.0	 1.08426	 4.0	 1	 31	 2.0	 0.0	 0.0	 0.0	 0.0	 0.0	 0.0	 0.0	 0.0	 0.0	 0.0	 0.0; % PEL
	1006	 29.0	 5.0	 22.0	 -22.0	 1.08426	 5.0	 1	 44	 2.0	 0.0	 0.0	 0.0	 0.0	 0.0	 0.0	 0.0	 0.0	 0.0	 0.0	 0.0; % NG
	1006	 0.0	 0.0	 0.0	 0.0	 1.08426	 6.0	 0	 0	 0.0	 0.0	 0.0	 0.0	 0.0	 0.0	 0.0	 0.0	 0.0	 0.0	 0.0	 0.0; % SYNC
	1007	 0.0	 0.0	 110.0	 -40.0	 1.08332	 174.1	 0	 0	 0.0	 0.0	 0.0	 0.0	 0.0	 0.0	 0.0	 0.0	 0.0	 0.0	 0.0	 0.0; % SYNC
	1013	 113.0	 21.0	 59.0	 -59.0	 1.07931	 20.6	 1	 117	 7.5	 0.0	 0.0	 0.0	 0.0	 0.0	 0.0	 0.0	 0.0	 0.0	 0.0	 0.0; % PEL
	1013	 0.0	 0.0	 0.0	 0.0	 1.07931	 12.8	 0	 0	 0.0	 0.0	 0.0	 0.0	 0.0	 0.0	 0.0	 0.0	 0.0	 0.0	 0.0	 0.0; % SYNC
	1013	 0.0	 0.0	 0.0	 0.0	 1.07931	 12.5	 0	 0	 0.0	 0.0	 0.0	 0.0	 0.0	 0.0	 0.0	 0.0	 0.0	 0.0	 0.0	 0.0; % SYNC
	1015	 0.0	 0.0	 0.0	 0.0	 1.07594	 20.0	 0	 0	 0.0	 0.0	 0.0	 0.0	 0.0	 0.0	 0.0	 0.0	 0.0	 0.0	 0.0	 0.0; % SYNC
	1015	 0.0	 0.0	 0.0	 0.0	 1.07594	 19.0	 0	 0	 0.0	 0.0	 0.0	 0.0	 0.0	 0.0	 0.0	 0.0	 0.0	 0.0	 0.0	 0.0; % SYNC
	1024	 166.0	 53.0	 155.0	 -155.0	 1.05936	 30.0	 1	 309	 6.0	 0.0	 0.0	 0.0	 0.0	 0.0	 0.0	 0.0	 0.0	 0.0	 0.0	 0.0; % PEL
	1025	 0.0	 0.0	 18.0	 -0.0	 1.05941	 30.0	 0	 0	 0.0	 0.0	 0.0	 0.0	 0.0	 0.0	 0.0	 0.0	 0.0	 0.0	 0.0	 0.0; % SYNC
	1026	 0.0	 0.0	 14.0	 -0.0	 1.05936	 32.2	 0	 0	 0.0	 0.0	 0.0	 0.0	 0.0	 0.0	 0.0	 0.0	 0.0	 0.0	 0.0	 0.0; % SYNC
	1113	 0.0	 0.0	 37.5	 -0.0	 1.08345	 62.5	 0	 0	 0.0	 0.0	 0.0	 0.0	 0.0	 0.0	 0.0	 0.0	 0.0	 0.0	 0.0	 0.0; % SYNC
	1114	 0.0	 0.0	 37.5	 -0.0	 1.07469	 62.5	 0	 0	 0.0	 0.0	 0.0	 0.0	 0.0	 0.0	 0.0	 0.0	 0.0	 0.0	 0.0	 0.0; % SYNC
	1113	 166.0	 68.0	 177.0	 -177.0	 1.08345	 62.5	 1	 354	 25.0	 0.0	 0.0	 0.0	 0.0	 0.0	 0.0	 0.0	 0.0	 0.0	 0.0	 0.0; % NG
	1115	 0.0	 0.0	 37.5	 -0.0	 1.08094	 62.5	 0	 0	 0.0	 0.0	 0.0	 0.0	 0.0	 0.0	 0.0	 0.0	 0.0	 0.0	 0.0	 0.0; % SYNC
	1152	 63.0	 10.0	 47.0	 -47.0	 1.06515	 30.5	 1	 93	 8.5	 0.0	 0.0	 0.0	 0.0	 0.0	 0.0	 0.0	 0.0	 0.0	 0.0	 0.0; % PEL
	1152	 0.0	 0.0	 0.0	 0.0	 1.06515	 6.0	 0	 0	 0.0	 0.0	 0.0	 0.0	 0.0	 0.0	 0.0	 0.0	 0.0	 0.0	 0.0	 0.0; % SYNC
	1153	 61.0	 10.0	 61.0	 -61.0	 1.06525	 30.5	 1	 121	 8.5	 0.0	 0.0	 0.0	 0.0	 0.0	 0.0	 0.0	 0.0	 0.0	 0.0	 0.0; % PEL
	1153	 0.0	 0.0	 0.0	 0.0	 1.06525	 25.0	 0	 0	 0.0	 0.0	 0.0	 0.0	 0.0	 0.0	 0.0	 0.0	 0.0	 0.0	 0.0	 0.0; % SYNC
	1154	 59.0	 13.0	 49.0	 -49.0	 1.06879	 30.5	 1	 97	 8.0	 0.0	 0.0	 0.0	 0.0	 0.0	 0.0	 0.0	 0.0	 0.0	 0.0	 0.0; % PEL
	1154	 0.0	 0.0	 0.0	 0.0	 1.06879	 6.0	 0	 0	 0.0	 0.0	 0.0	 0.0	 0.0	 0.0	 0.0	 0.0	 0.0	 0.0	 0.0	 0.0; % SYNC
	1179	 144.0	 39.0	 78.0	 -78.0	 1.08436	 87.5	 1	 156	 35.0	 0.0	 0.0	 0.0	 0.0	 0.0	 0.0	 0.0	 0.0	 0.0	 0.0	 0.0; % PEL
	1180	 0.0	 0.0	 52.5	 0.0	 1.07255	 87.5	 0	 0	 0.0	 0.0	 0.0	 0.0	 0.0	 0.0	 0.0	 0.0	 0.0	 0.0	 0.0	 0.0; % SYNC
	1180	 0.0	 0.0	 42.0	 -0.0	 1.07255	 65.3	 0	 0	 0.0	 0.0	 0.0	 0.0	 0.0	 0.0	 0.0	 0.0	 0.0	 0.0	 0.0	 0.0; % SYNC
	1188	 137.0	 21.0	 207.0	 -207.0	 1.0801	 50.0	 1	 413	 25.0	 0.0	 0.0	 0.0	 0.0	 0.0	 0.0	 0.0	 0.0	 0.0	 0.0	 0.0; % NG
	1246	 73.0	 23.0	 48.0	 -48.0	 1.07803	 16.7	 1	 95	 5.0	 0.0	 0.0	 0.0	 0.0	 0.0	 0.0	 0.0	 0.0	 0.0	 0.0	 0.0; % PEL
	1246	 0.0	 0.0	 0.0	 0.0	 1.07803	 24.0	 0	 0	 0.0	 0.0	 0.0	 0.0	 0.0	 0.0	 0.0	 0.0	 0.0	 0.0	 0.0	 0.0; % SYNC
	1247	 0.0	 0.0	 0.0	 0.0	 1.06772	 14.6	 0	 0	 0.0	 0.0	 0.0	 0.0	 0.0	 0.0	 0.0	 0.0	 0.0	 0.0	 0.0	 0.0; % SYNC
	1247	 0.0	 0.0	 0.0	 0.0	 1.06772	 14.6	 0	 0	 0.0	 0.0	 0.0	 0.0	 0.0	 0.0	 0.0	 0.0	 0.0	 0.0	 0.0	 0.0; % SYNC
...
];

%% generator cost data
%	2	startup	shutdown	n	c(n-1)	...	c0
mpc.gencost = [
	2	 0.0	 0.0	 3	   0.000000	   1.339722	   0.000000; % NG
	2	 0.0	 0.0	 3	   0.000000	   1.052525	   0.000000; % NG
	2	 0.0	 0.0	 3	   0.000000	   1.021751	   0.000000; % COW
	2	 0.0	 0.0	 3	   0.000000	   0.598885	   0.000000; % NG
	2	 0.0	 0.0	 3	   0.000000	   1.178763	   0.000000; % NG
	2	 0.0	 0.0	 3	   0.000000	   1.068852	   0.000000; % NG
	2	 0.0	 0.0	 3	   0.000000	   1.125380	   0.000000; % NG
	2	 0.0	 0.0	 3	   0.000000	   0.805990	   0.000000; % NG
	2	 0.0	 0.0	 3	   0.000000	   0.206113	   0.000000; % NUC
	2	 0.0	 0.0	 3	   0.000000	   0.172990	   0.000000; % COW
	2	 0.0	 0.0	 3	   0.000000	   1.416699	   0.000000; % NG
	2	 0.0	 0.0	 3	   0.000000	   1.284132	   0.000000; % NG
	2	 0.0	 0.0	 3	   0.000000	   0.730298	   0.000000; % COW
	2	 0.0	 0.0	 3	   0.000000	   0.535974	   0.000000; % NG
	2	 0.0	 0.0	 3	   0.000000	   1.419109	   0.000000; % NG
	2	 0.0	 0.0	 3	   0.000000	   1.236333	   0.000000; % NG
	2	 0.0	 0.0	 3	   0.000000	   0.990956	   0.000000; % COW
	2	 0.0	 0.0	 3	   0.000000	   0.946727	   0.000000; % NG
	2	 0.0	 0.0	 3	   0.000000	   0.965771	   0.000000; % COW
	2	 0.0	 0.0	 3	   0.000000	   0.831921	   0.000000; % NG
	2	 0.0	 0.0	 3	   0.000000	   0.716103	   0.000000; % COW
	2	 0.0	 0.0	 3	   0.000000	   0.958450	   0.000000; % NG
	2	 0.0	 0.0	 3	   0.000000	   0.800434	   0.000000; % NG
	2	 0.0	 0.0	 3	   0.000000	   1.048798	   0.000000; % COW
	2	 0.0	 0.0	 3	   0.000000	   1.019472	   0.000000; % NG
	2	 0.0	 0.0	 3	   0.000000	   1.259635	   0.000000; % NG
	2	 0.0	 0.0	 3	   0.000000	   1.160632	   0.000000; % NG
	2	 0.0	 0.0	 3	   0.000000	   0.945536	   0.000000; % COW
	2	 0.0	 0.0	 3	   0.000000	   1.162114	   0.000000; % NG
	2	 0.0	 0.0	 3	   0.000000	   1.053329	   0.000000; % NG
	2	 0.0	 0.0	 3	   0.000000	   0.364605	   0.000000; % COW
	2	 0.0	 0.0	 3	   0.000000	   0.663722	   0.000000; % NG
	2	 0.0	 0.0	 3	   0.000000	   1.121412	   0.000000; % NG
	2	 0.0	 0.0	 3	   0.000000	   1.064005	   0.000000; % NG
	2	 0.0	 0.0	 3	   0.000000	   0.849830	   0.000000; % NG
	2	 0.0	 0.0	 3	   0.000000	   0.672101	   0.000000; % COW
	2	 0.0	 0.0	 3	   0.000000	   1.025479	   0.000000; % NG
	2	 0.0	 0.0	 3	   0.000000	   1.218582	   0.000000; % NG
	2	 0.0	 0.0	 3	   0.000000	   0.845941	   0.000000; % NG
	2	 0.0	 0.0	 3	   0.000000	   0.941314	   0.000000; % NG
	2	 0.0	 0.0	 3	   0.000000	   1.063883	   0.000000; % NG
	2	 0.0	 0.0	 3	   0.000000	   1.009360	   0.000000; % NG
	2	 0.0	 0.0	 3	   0.000000	   0.563942	   0.000000; % NG
	2	 0.0	 0.0	 3	   0.000000	   0.820907	   0.000000; % COW
	2	 0.0	 0.0	 3	   0.000000	   1.362752	   0.000000; % NG
	2	 0.0	 0.0	 3	   0.000000	   1.047902	   0.000000; % NG
	2	 0.0	 0.0	 3	   0.000000	   0.594381	   0.000000; % COW
	2	 0.0	 0.0	 3	   0.000000	   1.257070	   0.000000; % NG
	2	 0.0	 0.0	 3	   0.000000	   0.906191	   0.000000; % NG
	2	 0.0	 0.0	 3	   0.000000	   0.745005	   0.000000; % COW
	2	 0.0	 0.0	 3	   0.000000	   0.834631	   0.000000; % NG
	2	 0.0	 0.0	 3	   0.000000	   0.881599	   0.000000; % COW
	2	 0.0	 0.0	 3	   0.000000	   0.702300	   0.000000; % NG
	2	 0.0	 0.0	 3	   0.000000	   1.135331	   0.000000; % NG
	2	 0.0	 0.0	 3	   0.000000	   1.056620	   0.000000; % NG
	2	 0.0	 0.0	 3	   0.000000	   1.137729	   0.000000; % NG
	2	 0.0	 0.0	 3	   0.000000	   7.142469	   0.000000; % PEL
	2	 0.0	 0.0	 3	   0.000000	   0.938438	   0.000000; % NG
	2	 0.0	 0.0	 3	   0.000000	   1.042234	   0.000000; % NG
	2	 0.0	 0.0	 3	   0.000000	   0.619081	   0.000000; % NG
	2	 0.0	 0.0	 3	   0.000000	   0.863631	   0.000000; % COW
	2	 0.0	 0.0	 3	   0.000000	   0.946956	   0.000000; % NG
	2	 0.0	 0.0	 3	   0.000000	   1.013846	   0.000000; % NG
	2	 0.0	 0.0	 3	   0.000000	   0.947326	   0.000000; % NG
	2	 0.0	 0.0	 3	   0.000000	   1.077339	   0.000000; % NG
	2	 0.0	 0.0	 3	   0.000000	   0.964000	   0.000000; % NG
	2	 0.0	 0.0	 3	   0.000000	   1.283059	   0.000000; % NG
	2	 0.0	 0.0	 3	   0.000000	   0.914120	   0.000000; % NG
	2	 0.0	 0.0	 3	   0.000000	   1.012761	   0.000000; % NG
	2	 0.0	 0.0	 3	   0.000000	   0.995198	   0.000000; % NG
	2	 0.0	 0.0	 3	   0.000000	   0.862547	   0.000000; % NG
	2	 0.0	 0.0	 3	   0.000000	   0.694800	   0.000000; % COW
	2	 0.0	 0.0	 3	   0.000000	   0.685477	   0.000000; % COW
	2	 0.0	 0.0	 3	   0.000000	   1.262888	   0.000000; % NG
	2	 0.0	 0.0	 3	   0.000000	   0.900788	   0.000000; % NG
	2	 0.0	 0.0	 3	   0.000000	   0.981316	   0.000000; % NG
	2	 0.0	 0.0	 3	   0.000000	   1.265303	   0.000000; % NG
	2	 0.0	 0.0	 3	   0.000000	   0.778158	   0.000000; % NG
	2	 0.0	 0.0	 3	   0.000000	   1.059722	   0.000000; % NG
	2	 0.0	 0.0	 3	   0.000000	   1.075796	   0.000000; % NG
	2	 0.0	 0.0	 3	   0.000000	   1.258252	   0.000000; % NG
	2	 0.0	 0.0	 3	   0.000000	   1.314426	   0.000000; % NG
	2	 0.0	 0.0	 3	   0.000000	   1.121661	   0.000000; % NG
	2	 0.0	 0.0	 3	   0.000000	   1.102708	   0.000000; % NG
	2	 0.0	 0.0	 3	   0.000000	   0.694909	   0.000000; % NG
	2	 0.0	 0.0	 3	   0.000000	   0.990979	   0.000000; % NG
	2	 0.0	 0.0	 3	   0.000000	   0.000000	   0.000000; % SYNC
	2	 0.0	 0.0	 3	   0.000000	   0.000000	   0.000000; % SYNC
	2	 0.0	 0.0	 3	   0.000000	   0.928545	   0.000000; % NG
	2	 0.0	 0.0	 3	   0.000000	   6.463935	   0.000000; % PEL
	2	 0.0	 0.0	 3	   0.000000	   6.856918	   0.000000; % PEL
	2	 0.0	 0.0	 3	   0.000000	   0.720880	   0.000000; % NG
	2	 0.0	 0.0	 3	   0.000000	   0.735902	   0.000000; % NG
	2	 0.0	 0.0	 3	   0.000000	   0.000000	   0.000000; % SYNC
	2	 0.0	 0.0	 3	   0.000000	   0.000000	   0.000000; % SYNC
	2	 0.0	 0.0	 3	   0.000000	   1.115891	   0.000000; % NG
	2	 0.0	 0.0	 3	   0.000000	   0.000000	   0.000000; % SYNC
	2	 0.0	 0.0	 3	   0.000000	   0.000000	   0.000000; % SYNC
	2	 0.0	 0.0	 3	   0.000000	   0.000000	   0.000000; % SYNC
	2	 0.0	 0.0	 3	   0.000000	   0.000000	   0.000000; % SYNC
	2	 0.0	 0.0	 3	   0.000000	   1.344449	   0.000000; % NG
	2	 0.0	 0.0	 3	   0.000000	   0.000000	   0.000000; % SYNC
	2	 0.0	 0.0	 3	   0.000000	   0.830119	   0.000000; % NG
	2	 0.0	 0.0	 3	   0.000000	   0.000000	   0.000000; % SYNC
	2	 0.0	 0.0	 3	   0.000000	   0.745224	   0.000000; % NG
	2	 0.0	 0.0	 3	   0.000000	   0.000000	   0.000000; % SYNC
	2	 0.0	 0.0	 3	   0.000000	   0.000000	   0.000000; % SYNC
	2	 0.0	 0.0	 3	   0.000000	   7.072026	   0.000000; % PEL
	2	 0.0	 0.0	 3	   0.000000	   1.060098	   0.000000; % NG
	2	 0.0	 0.0	 3	   0.000000	   7.510560	   0.000000; % PEL
	2	 0.0	 0.0	 3	   0.000000	   1.219049	   0.000000; % NG
	2	 0.0	 0.0	 3	   0.000000	   1.099939	   0.000000; % NG
	2	 0.0	 0.0	 3	   0.000000	   0.931391	   0.000000; % NG
	2	 0.0	 0.0	 3	   0.000000	   0.602796	   0.000000; % NG
	2	 0.0	 0.0	 3	   0.000000	   1.209023	   0.000000; % NG
	2	 0.0	 0.0	 3	   0.000000	   7.096231	   0.000000; % PEL
	2	 0.0	 0.0	 3	   0.000000	   0.713408	   0.000000; % NG
	2	 0.0	 0.0	 3	   0.000000	   0.000000	   0.000000; % SYNC
	2	 0.0	 0.0	 3	   0.000000	   6.896120	   0.000000; % PEL
	2	 0.0	 0.0	 3	   0.000000	   6.542861	   0.000000; % PEL
	2	 0.0	 0.0	 3	   0.000000	   0.000000	   0.000000; % SYNC
	2	 0.0	 0.0	 3	   0.000000	   0.000000	   0.000000; % SYNC
	2	 0.0	 0.0	 3	   0.000000	   0.000000	   0.000000; % SYNC
	2	 0.0	 0.0	 3	   0.000000	   0.000000	   0.000000; % SYNC
	2	 0.0	 0.0	 3	   0.000000	   0.943768	   0.000000; % NG
	2	 0.0	 0.0	 3	   0.000000	   1.262316	   0.000000; % NG
	2	 0.0	 0.0	 3	   0.000000	   0.000000	   0.000000; % SYNC
	2	 0.0	 0.0	 3	   0.000000	   0.000000	   0.000000; % SYNC
	2	 0.0	 0.0	 3	   0.000000	   7.120174	   0.000000; % PEL
	2	 0.0	 0.0	 3	   0.000000	   6.509651	   0.000000; % PEL
	2	 0.0	 0.0	 3	   0.000000	   0.000000	   0.000000; % SYNC
	2	 0.0	 0.0	 3	   0.000000	   0.000000	   0.000000; % SYNC
	2	 0.0	 0.0	 3	   0.000000	   0.000000	   0.000000; % SYNC
	2	 0.0	 0.0	 3	   0.000000	   0.000000	   0.000000; % SYNC
	2	 0.0	 0.0	 3	   0.000000	   0.815708	   0.000000; % COW
	2	 0.0	 0.0	 3	   0.000000	   0.000000	   0.000000; % SYNC
	2	 0.0	 0.0	 3	   0.000000	   0.000000	   0.000000; % SYNC
	2	 0.0	 0.0	 3	   0.000000	   0.000000	   0.000000; % SYNC
	2	 0.0	 0.0	 3	   0.000000	   6.837948	   0.000000; % PEL
	2	 0.0	 0.0	 3	   0.000000	   1.178561	   0.000000; % NG
	2	 0.0	 0.0	 3	   0.000000	   7.122977	   0.000000; % PEL
	2	 0.0	 0.0	 3	   0.000000	   1.074943	   0.000000; % NG
	2	 0.0	 0.0	 3	   0.000000	   0.965182	   0.000000; % NG
	2	 0.0	 0.0	 3	   0.000000	   0.936988	   0.000000; % NG
	2	 0.0	 0.0	 3	   0.000000	   0.992734	   0.000000; % NG
	2	 0.0	 0.0	 3	   0.000000	   7.449969	   0.000000; % PEL
	2	 0.0	 0.0	 3	   0.000000	   0.990696	   0.000000; % NG
	2	 0.0	 0.0	 3	   0.000000	   0.970127	   0.000000; % COW
	2	 0.0	 0.0	 3	   0.000000	   0.840854	   0.000000; % COW
	2	 0.0	 0.0	 3	   0.000000	   6.617000	   0.000000; % PEL
	2	 0.0	 0.0	 3	   0.000000	   6.532050	   0.000000; % PEL
	2	 0.0	 0.0	 3	   0.000000	   0.920956	   0.000000; % NG
	2	 0.0	 0.0	 3	   0.000000	   1.146338	   0.000000; % NG
	2	 0.0	 0.0	 3	   0.000000	   7.075937	   0.000000; % PEL
	2	 0.0	 0.0	 3	   0.000000	   0.998788	   0.000000; % NG
	2	 0.0	 0.0	 3	   0.000000	   1.306592	   0.000000; % NG
	2	 0.0	 0.0	 3	   0.000000	   6.613729	   0.000000; % PEL
	2	 0.0	 0.0	 3	   0.000000	   1.139032	   0.000000; % NG
	2	 0.0	 0.0	 3	   0.000000	   0.000000	   0.000000; % SYNC
	2	 0.0	 0.0	 3	   0.000000	   0.000000	   0.000000; % SYNC
	2	 0.0	 0.0	 3	   0.000000	   1.018872	   0.000000; % COW
	2	 0.0	 0.0	 3	   0.000000	   0.000000	   0.000000; % SYNC
	2	 0.0	 0.0	 3	   0.000000	   0.983777	   0.000000; % NG
	2	 0.0	 0.0	 3	   0.000000	   0.000000	   0.000000; % SYNC
	2	 0.0	 0.0	 3	   0.000000	   0.000000	   0.000000; % SYNC
	2	 0.0	 0.0	 3	   0.000000	   1.007829	   0.000000; % NG
	2	 0.0	 0.0	 3	   0.000000	   0.000000	   0.000000; % SYNC
	2	 0.0	 0.0	 3	   0.000000	   0.968390	   0.000000; % NG
	2	 0.0	 0.0	 3	   0.000000	   1.157044	   0.000000; % COW
	2	 0.0	 0.0	 3	   0.000000	   0.930153	   0.000000; % NG
	2	 0.0	 0.0	 3	   0.000000	   6.453505	   0.000000; % PEL
	2	 0.0	 0.0	 3	   0.000000	   0.936360	   0.000000; % NG
	2	 0.0	 0.0	 3	   0.000000	   0.000000	   0.000000; % SYNC
	2	 0.0	 0.0	 3	   0.000000	   0.000000	   0.000000; % SYNC
	2	 0.0	 0.0	 3	   0.000000	   6.928545	   0.000000; % PEL
	2	 0.0	 0.0	 3	   0.000000	   0.000000	   0.000000; % SYNC
	2	 0.0	 0.0	 3	   0.000000	   0.000000	   0.000000; % SYNC
	2	 0.0	 0.0	 3	   0.000000	   0.000000	   0.000000; % SYNC
	2	 0.0	 0.0	 3	   0.000000	   0.000000	   0.000000; % SYNC
	2	 0.0	 0.0	 3	   0.000000	   6.513803	   0.000000; % PEL
	2	 0.0	 0.0	 3	   0.000000	   0.000000	   0.000000; % SYNC
	2	 0.0	 0.0	 3	   0.000000	   0.000000	   0.000000; % SYNC
	2	 0.0	 0.0	 3	   0.000000	   0.000000	   0.000000; % SYNC
	2	 0.0	 0.0	 3	   0.000000	   0.000000	   0.000000; % SYNC
	2	 0.0	 0.0	 3	   0.000000	   0.825667	   0.000000; % NG
	2	 0.0	 0.0	 3	   0.000000	   0.000000	   0.000000; % SYNC
	2	 0.0	 0.0	 3	   0.000000	   6.262529	   0.000000; % PEL
	2	 0.0	 0.0	 3	   0.000000	   0.000000	   0.000000; % SYNC
	2	 0.0	 0.0	 3	   0.000000	   6.626243	   0.000000; % PEL
	2	 0.0	 0.0	 3	   0.000000	   0.000000	   0.000000; % SYNC
	2	 0.0	 0.0	 3	   0.000000	   6.402834	   0.000000; % PEL
	2	 0.0	 0.0	 3	   0.000000	   0.000000	   0.000000; % SYNC
	2	 0.0	 0.0	 3	   0.000000	   6.950866	   0.000000; % PEL
	2	 0.0	 0.0	 3	   0.000000	   0.000000	   0.000000; % SYNC
	2	 0.0	 0.0	 3	   0.000000	   0.000000	   0.000000; % SYNC
	2	 0.0	 0.0	 3	   0.000000	   0.888532	   0.000000; % NG
	2	 0.0	 0.0	 3	   0.000000	   6.880617	   0.000000; % PEL
	2	 0.0	 0.0	 3	   0.000000	   0.000000	   0.000000; % SYNC
	2	 0.0	 0.0	 3	   0.000000	   0.000000	   0.000000; % SYNC
	2	 0.0	 0.0	 3	   0.000000	   0.000000	   0.000000; % SYNC
...
];

%% branch data
%	fbus	tbus	r	x	b	rateA	rateB	rateC	ratio	angle	status	angmin	angmax
mpc.branch = [
	7	 8	 0.00064	 0.0305	 0.0	 400.0	 400.0	 400.0	 1.0435	 -0.6	 1	 -30.0	 30.0;
	26	 28	 0.00036	 0.02519	 0.0	 500.0	 500.0	 500.0	 1.067	 0.0	 1	 -30.0	 30.0;
	27	 29	 0.00036	 0.02519	 0.0	 500.0	 500.0	 500.0	 1.0671	 0.0	 1	 -30.0	 30.0;
	39	 41	 0.00034	 0.02097	 0.0	 500.0	 500.0	 500.0	 1.1102	 0.0	 1	 -30.0	 30.0;
	42	 45	 0.00034	 0.02097	 0.0	 500.0	 500.0	 500.0	 1.0917	 0.0	 1	 -30.0	 30.0;
	54	 56	 0.00081	 0.03	 0.0	 400.0	 400.0	 400.0	 1.0466	 0.0	 1	 -30.0	 30.0;
	89	 91	 0.00075	 0.02444	 -0.00832	 330.0	 330.0	 330.0	 1.0553	 0.0	 1	 -30.0	 30.0;
	90	 92	 0.00075	 0.02469	 -0.008	 330.0	 330.0	 330.0	 1.0552	 0.0	 1	 -30.0	 30.0;
	124	 127	 0.0005	 0.02875	 -0.016	 400.0	 400.0	 400.0	 1.087	 0.0	 1	 -30.0	 30.0;
	148	 149	 0.00064	 0.0305	 0.0	 400.0	 400.0	 400.0	 1.0636	 0.0	 1	 -30.0	 30.0;
	154	 156	 0.000232	 0.023	 0.0	 500.0	 500.0	 500.0	 1.0953	 0.0	 1	 -30.0	 30.0;
	155	 157	 0.000232	 0.023	 0.0	 500.0	 500.0	 500.0	 1.0953	 0.0	 1	 -30.0	 30.0;
	168	 170	 0.00035	 0.02375	 0.0	 500.0	 500.0	 500.0	 1.0767	 0.0	 1	 -30.0	 30.0;
	182	 183	 0.00059	 0.03093	 0.0	 400.0	 400.0	 400.0	 1.0504	 0.0	 1	 -30.0	 30.0;
	189	 191	 0.0004	 0.03	 0.0	 500.0	 500.0	 500.0	 1.0695	 3.6	 1	 -30.0	 30.0;
	2726	 156	 0.00031	 0.00338	 0.0992	 1386.0	 1386.0	 1386.0	 0.0	 0.0	 1	 -30.0	 30.0;
	2726	 157	 0.00031	 0.00338	 0.0992	 1386.0	 1386.0	 1386.0	 0.0	 0.0	 1	 -30.0	 30.0;
	2727	 67	 0.014341	 0.083531	 0.126034	 385.0	 385.0	 385.0	 0.0	 0.0	 1	 -30.0	 30.0;
	2725	 75	 0.01219	 0.070659	 0.117418	 412.0	 412.0	 412.0	 0.0	 0.0	 1	 -30.0	 30.0;
	2725	 104	 0.011781	 0.07087	 0.116838	 412.0	 412.0	 412.0	 0.0	 0.0	 1	 -30.0	 30.0;
	126	 2724	 0.001525	 0.016837	 0.50576	 1386.0	 1386.0	 1386.0	 0.0	 0.0	 1	 -30.0	 30.0;
	2728	 147	 0.001651	 0.015909	 0.046948	 316.0	 316.0	 316.0	 0.0	 0.0	 1	 -30.0	 30.0;
	2728	 148	 0.001651	 0.015909	 0.046948	 316.0	 316.0	 316.0	 0.0	 0.0	 1	 -30.0	 30.0;
	2729	 47	 0.00188	 0.02287	 0.6432	 831.0	 831.0	 831.0	 0.0	 0.0	 1	 -30.0	 30.0;
	2729	 48	 0.00188	 0.02287	 0.6432	 831.0	 831.0	 831.0	 0.0	 0.0	 1	 -30.0	 30.0;
	81	 2723	 0.002769	 0.031162	 0.89824	 1386.0	 1386.0	 1386.0	 0.0	 0.0	 1	 -30.0	 30.0;
	42	 23	 0.01345	 0.081141	 0.141134	 339.0	 339.0	 339.0	 0.0	 0.0	 1	 -30.0	 30.0;
	26	 89	 0.009091	 0.062401	 0.111417	 453.0	 453.0	 453.0	 0.0	 0.0	 1	 -30.0	 30.0;
	27	 90	 0.00868	 0.06405	 0.096994	 427.0	 427.0	 427.0	 0.0	 0.0	 1	 -30.0	 30.0;
	145	 30	 0.016961	 0.123659	 0.196988	 316.0	 316.0	 316.0	 0.0	 0.0	 1	 -30.0	 30.0;
	134	 33	 0.00512	 0.02618	 0.029621	 301.0	 301.0	 301.0	 0.0	 0.0	 1	 -30.0	 30.0;
	133	 20	 0.01068	 0.061961	 0.094961	 385.0	 385.0	 385.0	 0.0	 0.0	 1	 -30.0	 30.0;
	163	 21	 0.014651	 0.105891	 0.170852	 316.0	 316.0	 316.0	 0.0	 0.0	 1	 -30.0	 30.0;
	40	 108	 0.01488	 0.08161	 0.114805	 314.0	 314.0	 314.0	 0.0	 0.0	 1	 -30.0	 30.0;
	39	 90	 0.011159	 0.07231	 0.103673	 324.0	 324.0	 324.0	 0.0	 0.0	 1	 -30.0	 30.0;
	177	 82	 0.005517	 0.059484	 0.170775	 316.0	 316.0	 316.0	 0.0	 0.0	 1	 -30.0	 30.0;
	202	 164	 0.01176	 0.068289	 0.102802	 324.0	 324.0	 324.0	 0.0	 0.0	 1	 -30.0	 30.0;
	193	 164	 0.016818	 0.089091	 0.129935	 358.0	 358.0	 358.0	 0.0	 0.0	 1	 -30.0	 30.0;
	192	 163	 0.013843	 0.087025	 0.134842	 383.0	 383.0	 383.0	 0.0	 0.0	 1	 -30.0	 30.0;
	206	 166	 0.01676	 0.097169	 0.148685	 269.0	 269.0	 269.0	 0.0	 0.0	 1	 -30.0	 30.0;
	42	 10	 0.01269	 0.074979	 0.130196	 351.0	 351.0	 351.0	 0.0	 0.0	 1	 -30.0	 30.0;
	197	 18	 0.014091	 0.10413	 0.15972	 316.0	 316.0	 316.0	 0.0	 0.0	 1	 -30.0	 30.0;
	99	 54	 0.003719	 0.0438	 0.100962	 457.0	 457.0	 457.0	 0.0	 0.0	 1	 -30.0	 30.0;
	161	 81	 0.00194	 0.02056	 0.51584	 1178.0	 1178.0	 1178.0	 0.0	 0.0	 1	 -30.0	 30.0;
	44	 9	 0.0015	 0.01506	 0.4032	 1386.0	 1386.0	 1386.0	 0.0	 0.0	 1	 -30.0	 30.0;
	184	 149	 0.00294	 0.03463	 0.9216	 693.0	 693.0	 693.0	 0.0	 0.0	 1	 -30.0	 30.0;
	120	 56	 0.00169	 0.01994	 0.50624	 831.0	 831.0	 831.0	 0.0	 0.0	 1	 -30.0	 30.0;
	29	 92	 0.00137	 0.01625	 0.41184	 1386.0	 1386.0	 1386.0	 0.0	 0.0	 1	 -30.0	 30.0;
	28	 122	 0.00231	 0.02769	 0.70144	 1386.0	 1386.0	 1386.0	 0.0	 0.0	 1	 -30.0	 30.0;
	25	 191	 0.00207	 0.02474	 0.664	 1386.0	 1386.0	 1386.0	 0.0	 0.0	 1	 -30.0	 30.0;
	119	 63	 0.0015	 0.01788	 0.4512	 831.0	 831.0	 831.0	 0.0	 0.0	 1	 -30.0	 30.0;
	121	 63	 0.00469	 0.05544	 1.4048	 831.0	 831.0	 831.0	 0.0	 0.0	 1	 -30.0	 30.0;
	81	 31	 0.00331	 0.03425	 0.85888	 977.0	 977.0	 977.0	 0.0	 0.0	 1	 -30.0	 30.0;
	91	 28	 0.00219	 0.02369	 0.59584	 1178.0	 1178.0	 1178.0	 0.0	 0.0	 1	 -30.0	 30.0;
	12	 4	 0.01674	 0.09711	 0.144232	 427.0	 427.0	 427.0	 0.0	 0.0	 1	 -30.0	 30.0;
	30	 11	 0.0057	 0.0407	 0.06021	 316.0	 316.0	 316.0	 0.0	 0.0	 1	 -30.0	 30.0;
...